  Page 1                                    Tue Mar 19 14:22:37 2019

  ******************************************************************
  *                           E P A N E T                          *
  *                   Hydraulic and Water Quality                  *
  *                   Analysis for Pipe Networks                   *
  *                         Version 2.00.12                        *
  ******************************************************************
  
  Analysis begun Tue Mar 19 14:22:37 2019

   
  Hydraulic Status:
  -----------------------------------------------------------------------
     0:00:00: Pump ~@Pump-1 changed by Tank T-2 control
     0:00:00: Balancing the network:
              Trial  1: relative flow change = 1.298330
              Trial  2: relative flow change = 0.360727
              Trial  3: relative flow change = 0.089197
              Trial  4: relative flow change = 0.019235
              Trial  5: relative flow change = 0.003449
              Trial  6: relative flow change = 0.000666
              Trial  7: relative flow change = 0.000195
              Trial  8: relative flow change = 0.000079
     0:00:00: Balanced after 8 trials
     0:00:00: Reservoir R-1 is closed
     0:00:00: Tank T-1 is filling at 116.17 ft
     0:00:00: Tank T-2 is emptying at 148.02 ft
     0:00:00: Tank T-3 is filling at 129.52 ft
     0:00:00: Pump ~@Pump-1 closed
   
     0:10:00: Balancing the network:
              Trial  1: relative flow change = 0.037056
              Trial  2: relative flow change = 0.000636
              Trial  3: relative flow change = 0.000003
     0:10:00: Balanced after 3 trials
   
     0:20:00: Balancing the network:
              Trial  1: relative flow change = 0.038302
              Trial  2: relative flow change = 0.000674
              Trial  3: relative flow change = 0.000001
     0:20:00: Balanced after 3 trials
   
     0:30:00: Balancing the network:
              Trial  1: relative flow change = 0.039666
              Trial  2: relative flow change = 0.000726
              Trial  3: relative flow change = 0.000000
     0:30:00: Balanced after 3 trials
   
     0:40:00: Balancing the network:
              Trial  1: relative flow change = 0.041136
              Trial  2: relative flow change = 0.000784
              Trial  3: relative flow change = 0.000000
     0:40:00: Balanced after 3 trials
   
     0:50:00: Balancing the network:
              Trial  1: relative flow change = 0.042724
              Trial  2: relative flow change = 0.000849
              Trial  3: relative flow change = 0.000000
     0:50:00: Balanced after 3 trials
   
     1:00:00: Balancing the network:
              Trial  1: relative flow change = 0.062783
              Trial  2: relative flow change = 0.001303
              Trial  3: relative flow change = 0.000005
     1:00:00: Balanced after 3 trials
   
     1:10:00: Balancing the network:
              Trial  1: relative flow change = 0.046412
              Trial  2: relative flow change = 0.000997
              Trial  3: relative flow change = 0.000001
     1:10:00: Balanced after 3 trials
   
     1:20:00: Balancing the network:
              Trial  1: relative flow change = 0.048436
              Trial  2: relative flow change = 0.001093
              Trial  3: relative flow change = 0.000001
     1:20:00: Balanced after 3 trials
   
     1:30:00: Balancing the network:
              Trial  1: relative flow change = 0.050653
              Trial  2: relative flow change = 0.001204
              Trial  3: relative flow change = 0.000001
     1:30:00: Balanced after 3 trials
   
     1:40:00: Balancing the network:
              Trial  1: relative flow change = 0.053089
              Trial  2: relative flow change = 0.001332
              Trial  3: relative flow change = 0.000001
     1:40:00: Balanced after 3 trials
   
     1:50:00: Balancing the network:
              Trial  1: relative flow change = 0.055781
              Trial  2: relative flow change = 0.001485
              Trial  3: relative flow change = 0.000001
     1:50:00: Balanced after 3 trials
   
     2:00:00: Balancing the network:
              Trial  1: relative flow change = 0.071380
              Trial  2: relative flow change = 0.001803
              Trial  3: relative flow change = 0.000003
     2:00:00: Balanced after 3 trials
   
     2:10:00: Balancing the network:
              Trial  1: relative flow change = 0.062239
              Trial  2: relative flow change = 0.001872
              Trial  3: relative flow change = 0.000002
     2:10:00: Balanced after 3 trials
   
     2:20:00: Balancing the network:
              Trial  1: relative flow change = 0.066012
              Trial  2: relative flow change = 0.002136
              Trial  3: relative flow change = 0.000004
     2:20:00: Balanced after 3 trials
   
     2:30:00: Balancing the network:
              Trial  1: relative flow change = 0.070320
              Trial  2: relative flow change = 0.002477
              Trial  3: relative flow change = 0.000006
     2:30:00: Balanced after 3 trials
   
     2:40:00: Balancing the network:
              Trial  1: relative flow change = 0.075274
              Trial  2: relative flow change = 0.002889
              Trial  3: relative flow change = 0.000006
     2:40:00: Balanced after 3 trials
   
     2:50:00: Balancing the network:
              Trial  1: relative flow change = 0.081078
              Trial  2: relative flow change = 0.003446
              Trial  3: relative flow change = 0.000008
     2:50:00: Balanced after 3 trials
   
     3:00:00: Balancing the network:
              Trial  1: relative flow change = 0.087960
              Trial  2: relative flow change = 0.004194
              Trial  3: relative flow change = 0.000014
     3:00:00: Balanced after 3 trials
   
   
  Node Results at 0:00:01 hrs:
  --------------------------------------------------------
                     Demand      Head  Pressure  化学成分
  Node                  gpm        ft       psi      mg/L
  --------------------------------------------------------
  J-1                  0.00    621.71     57.70      0.00
  J-10                 0.63    636.45     68.03      0.00
  J-100                0.62    638.78     73.44      0.00
  J-101                0.14    638.68     71.75      0.00
  J-102                1.06    638.76     69.81      0.00
  J-103                0.37    637.40     58.96      0.00
  J-104                0.44    637.40     53.94      0.00
  J-105                0.39    636.27     81.80      0.00
  J-106                0.25    636.27     81.58      0.00
  J-107                1.73    633.32     63.66      0.00
  J-108                1.71    633.24     60.75      0.00
  J-109                0.66    639.85     69.59      0.00
  J-11                 0.42    629.51     51.37      0.00
  J-110                0.22    639.78     70.59      0.00
  J-111                0.42    633.59     75.82      0.00
  J-112                0.32    633.58     75.68      0.00
  J-113                0.42    637.10     50.91      0.00
  J-114                0.18    637.10     47.78      0.00
  J-115                0.53    637.37     80.30      0.00
  J-116                0.94    637.38     77.05      0.00
  J-117                0.48    637.45     70.00      0.00
  J-118                1.32    636.96     74.59      0.00
  J-119                1.24    627.18     52.94      0.00
  J-12                 0.84    629.49     57.10      0.00
  J-120                0.71    630.01     55.03      0.00
  J-121                0.51    637.47     49.64      0.00
  J-122                0.69    637.47     50.23      0.00
  J-123                0.62    636.45     45.69      0.00
  J-124                0.56    636.45     49.63      0.00
  J-125                0.58    633.34     56.34      0.00
  J-126                0.95    634.16     61.97      0.00
  J-127                0.10    644.15     62.03      0.00
  J-128                0.32    640.18     65.03      0.00
  J-129                0.22    639.96     63.68      0.00
  J-13                 0.76    624.87     63.68      0.00
  J-130                0.74    635.30     78.07      0.00
  J-131                0.37    635.15     78.65      0.00
  J-132                0.90    637.47     50.77      0.00
  J-133                0.56    637.46     52.28      0.00
  J-134                0.43    639.97     60.22      0.00
  J-135                0.54    640.43     61.32      0.00
  J-136                1.55    632.53     68.97      0.00
  J-137                1.41    632.56     69.04      0.00
  J-138                0.25    618.03     56.39      0.00
  J-139                1.15    621.30     61.65      0.00
  J-14                 0.65    625.71     61.78      0.00
  J-140                0.44    633.92     83.59      0.00
  J-141                1.45    634.06     82.90      0.00
  J-142                0.89    634.29     82.89      0.00
  J-143                0.34    634.29     84.05      0.00
  J-144                0.35    636.94     69.73      0.00
  J-145                0.63    634.90     81.42      0.00
  J-146                0.58    637.40     53.54      0.00
  J-147                0.51    636.09     78.59      0.00
  J-148                0.44    636.09     74.57   3628.11
  J-149                1.18    635.32     76.32      0.00
  J-15                 0.37    629.66     56.65      0.00
  J-150                1.37    635.28     81.67      0.00
  J-151                0.17    636.45     45.78      0.00
  J-152                0.15    636.45     46.95      0.00
  J-153                0.82    625.61     59.23      0.00
  J-154                0.93    623.99     54.15      0.00
  J-155                0.36    631.15     68.96      0.00
  J-156                0.63    631.08     68.85      0.00
  J-157                0.12    641.77     62.45      0.00
  J-158                0.49    641.17     62.62      0.00
  J-159                0.83    634.73     77.79      0.00
  J-16                 0.56    629.89     61.18      0.00
  J-160                0.33    634.72     80.01      0.00
  J-161                1.07    633.20     81.93      0.00
  J-162                0.39    633.20     83.21      0.00
  J-163                0.95    637.49     57.14      0.00
  J-164                1.48    637.49     50.47      0.00
  J-165                0.23    634.88     77.57      0.00
  J-166                0.48    634.60     82.18      0.00
  J-167                0.74    638.09     55.43      0.00
  J-168                0.59    637.88     56.12      0.00
  J-169                0.93    637.67     56.47      0.00
  J-17                 0.57    632.70     55.62      0.00
  J-170                0.46    637.67     56.00      0.00
  J-171                1.12    637.39     67.91      0.00
  J-172                0.18    637.45     68.04      0.00
  J-173                0.13    637.45     69.09      0.00
  J-174                0.46    638.72     70.70      0.00
  J-175                0.46    638.99     70.01      0.00
  J-176                0.57    638.36     74.03      0.00
  J-177                0.47    638.08     80.38      0.00
  J-178                0.16    640.01     63.75      0.00
  J-179                0.89    639.74     67.12      0.00
  J-18                 0.67    632.63     51.65      0.00
  J-180                0.76    634.84     76.81      0.00
  J-181                0.59    637.62     80.20      0.00
  J-182                1.25    634.21     69.05      0.00
  J-183                1.02    634.30     72.36      0.00
  J-184                0.50    637.35     67.60      0.00
  J-185                0.64    637.08     67.39      0.00
  J-186                0.16    631.80     67.96      0.00
  J-187                0.62    631.80     66.85      0.00
  J-188                0.99    632.38     72.88      0.00
  J-189                0.44    632.38     71.01      0.00
  J-19                 0.24    636.84     69.68      0.00
  J-190                1.26    633.19     69.86      0.00
  J-191                0.44    632.34     68.68      0.00
  J-192                0.89    637.49     50.49      0.00
  J-193                0.86    637.48     50.90      0.00
  J-194                0.47    638.99     60.70      0.00
  J-195                0.42    639.59     60.92      0.00
  J-196                0.27    632.40     69.85      0.00
  J-197                0.67    632.44     68.51      0.00
  J-198                0.14    628.35     66.44      0.00
  J-199                0.13    628.34     66.44      0.00
  J-2                  0.00    630.26     61.21      0.00
  J-20                 0.36    636.84     68.68      0.00
  J-200                0.61    637.46     51.79      0.00
  J-201                0.25    634.83     79.69      0.00
  J-202                0.32    637.08     71.90      0.00
  J-203                0.61    626.91     57.96      0.00
  J-204                0.71    626.74     60.59      0.00
  J-205                1.26    634.91     66.16      0.00
  J-206                0.73    635.04     69.76      0.00
  J-207                0.42    633.20     80.37      0.00
  J-208                0.66    631.82     81.38      0.00
  J-209                0.28    631.82     80.95      0.00
  J-21                 0.32    631.38     69.88      0.00
  J-210                0.48    636.97     70.95      0.00
  J-211                0.45    637.67     55.58      0.00
  J-212                0.55    636.66     69.34      0.00
  J-213                0.79    636.42     70.65      0.00
  J-214                0.68    639.04     63.71      0.00
  J-215                0.41    638.99     63.26      0.00
  J-216                0.49    634.66     74.18      0.00
  J-217                0.46    633.62     72.31      0.00
  J-218                0.67    622.51     59.56      0.00
  J-219                1.20    626.18     63.33      0.00
  J-22                 0.11    631.38     70.29      0.00
  J-220                0.35    634.42     84.23      0.00
  J-221                0.72    634.60     81.77      0.00
  J-222                0.94    638.09     68.95      0.00
  J-223                0.39    640.34     66.41      0.00
  J-224                0.58    635.29     78.55      0.00
  J-225                0.88    634.84     79.42      0.00
  J-226                0.41    632.20     63.56      0.00
  J-227                0.49    634.32     76.38      0.00
  J-228                1.49    637.60     50.09      0.00
  J-229                0.00    637.14     76.24      0.00
  J-23                 0.58    632.33     77.13      0.00
  J-230                0.34    633.52     64.87      0.00
  J-231                0.88    633.53     65.01      0.00
  J-232                1.05    633.29     65.65      0.00
  J-233                0.14    640.61     65.86      0.00
  J-234                0.34    640.46     69.11      0.00
  J-235                0.70    634.45     84.25      0.00
  J-236                1.03    637.56     61.78      0.00
  J-237                0.67    637.84     59.30      0.00
  J-238                0.39    633.60     65.92      0.00
  J-239                0.32    633.60     66.46      0.00
  J-24                 1.02    632.03     76.26      0.00
  J-240                0.65    619.73     54.09      0.00
  J-241                0.30    619.48     54.22      0.00
  J-242                0.52    639.00     58.21      0.00
  J-243                0.13    640.75     62.45      0.00
  J-244                1.10    630.36     61.25      0.00
  J-245                1.07    629.34     60.92      0.00
  J-246                0.77    624.82     54.09      0.00
  J-247                0.86    637.73     59.69      0.00
  J-248                0.53    638.04     57.36      0.00
  J-249                0.28    637.38     54.18      0.00
  J-25                 2.24    633.24     59.85      0.00
  J-250                0.62    636.09     74.34      0.00
  J-251                0.81    636.25     76.80      0.00
  J-252                0.65    637.45     67.79      0.00
  J-253                0.69    633.64     75.75      0.00
  J-254                0.58    633.65     75.98      0.00
  J-255                0.87    633.65     80.88      0.00
  J-256                0.81    635.99     76.47      0.00
  J-257                0.00    628.92     64.93      0.00
  J-258                0.22    636.99     68.89      0.00
  J-259                0.40    637.56     49.69      0.00
  J-26                 1.23    633.41     64.69      0.00
  J-260                0.12    635.98     78.87      0.00
  J-261                1.15    635.98     78.44      0.00
  J-262                0.52    627.48     53.88      0.00
  J-263                0.70    628.04     51.57      0.00
  J-264                0.25    641.00     62.00      0.00
  J-265                0.88    637.30     54.32      0.00
  J-266                0.37    637.20     50.76      0.00
  J-267                0.60    634.48     84.26      0.00
  J-268                0.52    632.42     72.88      0.00
  J-269                0.63    633.63     83.80      0.00
  J-27                 1.13    637.61     55.29      0.00
  J-270                1.20    633.01     75.24      0.00
  J-271                0.46    636.80     71.14      0.00
  J-272                0.49    640.15     61.94      0.00
  J-273                0.83    636.39     73.11      0.00
  J-274                0.38    636.41     70.48      0.00
  J-275                0.07    639.73     65.69      0.00
  J-276                1.03    634.55     67.31      0.00
  J-277                0.88    634.31     70.42      0.00
  J-278                0.13    641.12     62.52      0.00
  J-279                1.31    636.06     73.80      0.00
  J-28                 0.78    637.41     50.87      0.00
  J-280                0.33    636.01     72.91      0.00
  J-281                0.29    636.76     69.00      0.00
  J-282                0.41    636.78     67.95      0.00
  J-283                0.68    629.34     61.01      0.00
  J-284                0.77    628.59     58.13      0.00
  J-285                0.49    637.54     50.88      0.00
  J-286                0.73    637.52     49.45      0.00
  J-287                0.06    632.43     73.54      0.00
  J-288                0.37    632.47     73.19      0.00
  J-289                0.32    635.96     76.11      0.00
  J-29                 0.33    632.38     77.13      0.00
  J-290                0.62    635.47     67.80      0.00
  J-291                0.90    635.43     70.05      0.00
  J-292                0.02    636.27     81.58      0.00
  J-293                0.79    637.52     49.90      0.00
  J-294                0.28    637.50     68.75      0.00
  J-295                0.13    641.44     62.40      0.00
  J-296                0.97    636.51     73.81      0.00
  J-297                0.29    637.45     68.22      0.00
  J-298                0.45    637.94     56.81      0.00
  J-299                0.51    635.08     72.36      0.00
  J-3                  0.46    625.60     59.59      0.00
  J-30                 0.72    630.88     59.90      0.00
  J-300                0.66    638.54     66.73      0.00
  J-301                0.34    638.88     58.71      0.00
  J-302                0.02    639.73     64.88      0.00
  J-303                0.51    637.52     53.56      0.00
  J-304                0.87    632.81     79.41      0.00
  J-305                1.26    630.54     65.37      0.00
  J-306                0.50    636.35     71.38      0.00
  J-307                0.82    636.38     70.44      0.00
  J-308                0.29    636.38     72.13      0.00
  J-309                1.33    631.81     77.76      0.00
  J-31                 1.46    632.03     63.31      0.00
  J-310                1.07    631.04     73.74      0.00
  J-311                0.00    625.72     60.51      0.00
  J-312                0.00    628.73     69.74      0.00
  J-313                0.27    636.88     71.02      0.00
  J-314                0.53    631.38     68.15      0.00
  J-315                0.85    631.68     71.42      0.00
  J-316                0.20    631.38     74.58      0.00
  J-317                0.07    631.38     73.12      0.00
  J-318                0.37    627.56     65.23      0.00
  J-319                0.49    627.56     66.82      0.00
  J-32                 0.56    636.96     70.76      0.00
  J-320                0.55    628.02     55.45      0.00
  J-321                0.47    627.56     54.77      0.00
  J-322                0.52    627.54     66.60      0.00
  J-323                0.35    627.54     70.10      0.00
  J-324                0.78    634.93     71.10      0.00
  J-325                0.69    634.84     69.72      0.00
  J-326                0.33    627.54     62.52      0.00
  J-327                1.11    634.63     81.96      0.00
  J-328                1.24    633.61     75.80      0.00
  J-329                0.57    634.35     74.94      0.00
  J-33                 0.87    637.30     64.58      0.00
  J-330                0.62    634.21     70.45      0.00
  J-331                0.82    627.28     54.54      0.00
  J-332                0.66    627.15     55.09      0.00
  J-333                0.35    627.54     63.92      0.00
  J-334                0.59    627.54     65.19      0.00
  J-335                2.25    637.40     51.89      0.00
  J-336                0.74    637.47     50.33      0.00
  J-337                0.95    633.31     70.53      0.00
  J-338                0.58    628.03     66.46      0.00
  J-339                0.88    628.02     64.63      0.00
  J-34                 0.66    632.93     59.68      0.00
  J-340                0.46    627.38     65.71      0.00
  J-341                0.35    627.38     73.91      0.00
  J-342                0.64    633.40     64.65      0.00
  J-343                0.15    633.46     65.12      0.00
  J-344                0.15    627.11     55.55      0.00
  J-345                0.43    627.01     54.94      0.00
  J-346                1.17    634.73     67.52      0.00
  J-347                0.97    634.60     67.89      0.00
  J-348                0.72    628.83     53.01      0.00
  J-349                0.41    628.64     56.95      0.00
  J-35                 1.64    632.92     68.06      0.00
  J-350                0.33    628.07     52.46      0.00
  J-351                0.92    627.31     51.18      0.00
  J-352                0.00    640.34     66.42      0.00
  J-353                0.33    634.27     69.39      0.00
  J-354                0.86    631.70     67.76      0.00
  J-355                0.78    618.33     56.08      0.00
  J-356                0.33    618.21     56.21      0.00
  J-357                0.55    619.63     55.09      0.00
  J-358                0.19    638.91     69.13      0.00
  J-359                0.74    627.13     53.41      0.00
  J-36                 0.57    632.01     61.06      0.00
  J-360                0.48    627.44     68.87      0.00
  J-361                1.70    627.38     63.87      0.00
  J-362                0.46    631.21     68.96      0.00
  J-363                0.98    638.41     62.56      0.00
  J-364                1.13    627.89     65.01      0.00
  J-365                1.22    627.76     62.58      0.00
  J-366                1.34    629.16     65.01      0.00
  J-367                0.65    626.97     52.87      0.00
  J-368                0.37    631.92     61.49      0.00
  J-369                1.99    632.92     57.89      0.00
  J-37                 1.01    631.95     65.41      0.00
  J-370                0.60    634.15     70.02      0.00
  J-371                0.77    633.61     76.06      0.00
  J-372                0.00    630.55     76.53      0.00
  J-373                0.00    633.57     67.59      0.00
  J-374                0.37    627.58     55.68      0.00
  J-375                0.76    632.38     73.44      0.00
  J-376                0.32    636.76     77.44      0.00
  J-377                1.36    634.23     82.08      0.00
  J-378                1.22    633.46     66.28      0.00
  J-379                0.41    632.32     79.97      0.00
  J-38                 0.60    632.00     68.35      0.00
  J-380                2.46    637.61     53.97      0.00
  J-381                0.59    637.57     50.82      0.00
  J-382                0.40    628.21     63.15      0.00
  J-383                0.68    631.16     55.30      0.00
  J-384                0.68    631.16     53.43      0.00
  J-385                0.58    627.55     60.42      0.00
  J-386                1.41    637.48     50.50      0.00
  J-387                0.25    628.55     56.18      0.00
  J-388                0.66    632.74     61.34      0.00
  J-389                0.15    627.56     68.81      0.00
  J-39                 0.15    636.69     69.21      0.00
  J-390                0.88    631.90     52.07      0.00
  J-391                1.40    631.26     53.21      0.00
  J-392                0.69    618.31     54.17      0.00
  J-393                0.87    638.36     59.52      0.00
  J-394                0.72    637.50     53.84      0.00
  J-395                0.55    634.48     85.08      0.00
  J-396                1.57    634.49     69.21      0.00
  J-397                0.56    636.59     64.55      0.00
  J-398                0.86    637.73     54.91      0.00
  J-399                0.08    632.42     72.36      0.00
  J-4                  1.36    627.56     65.24      0.00
  J-40                 0.34    636.69     72.49      0.00
  J-400                0.31    637.30     51.56      0.00
  J-401                0.00    629.47     67.26      0.00
  J-402                0.62    632.62     74.95      0.00
  J-403                0.04    637.45     68.57      0.00
  J-404                0.75    634.61     81.11      0.00
  J-405                0.09    626.91     59.09      0.00
  J-406                0.33    636.80     73.20      0.00
  J-407                0.47    636.87     70.25      0.00
  J-408                0.52    635.48     79.77      0.00
  J-409                0.39    629.40     52.51      0.00
  J-41                 0.92    632.53     70.83      0.00
  J-410                0.95    630.39     65.47      0.00
  J-411                0.52    636.35     73.94      0.00
  J-412                0.13    627.11     55.53      0.00
  J-413                0.03    627.11     56.87      0.00
  J-414                0.67    633.66     65.56      0.00
  J-415                0.00    629.57     67.23      0.00
  J-416                0.32    636.38     81.48      0.00
  J-417                0.92    632.34     68.92      0.00
  J-418                0.92    637.57     49.79      0.00
  J-419                0.49    637.56     50.49      0.00
  J-42                 1.22    631.79     68.23      0.00
  J-420                0.68    637.11     72.33      0.00
  J-421                1.93    637.13     76.24      0.00
  J-422                0.65    637.19     68.28      0.00
  J-423                0.92    637.64     54.17      0.00
  J-424                0.40    637.67     54.93      0.00
  J-425                0.40    635.29     78.52      0.00
  J-426                0.14    635.29     77.72      0.00
  J-427                0.79    634.56     79.66      0.00
  J-428                0.72    634.90     68.69      0.00
  J-429                0.39    638.10     58.11      0.00
  J-43                 0.33    637.02     67.49      0.00
  J-430                0.09    642.70     61.52      0.00
  J-431                1.78    636.06     73.72      0.00
  J-432                0.12    633.63     72.80      0.00
  J-433                0.65    621.36     57.40      0.00
  J-434                0.52    633.09     51.70      0.00
  J-435                0.16    642.01     61.53      0.00
  J-436                0.29    633.67     73.23      0.00
  J-437                0.61    636.36     82.05      0.00
  J-438                1.39    637.48     52.87      0.00
  J-439                0.34    637.48     54.11      0.00
  J-44                 0.27    636.96     68.41      0.00
  J-440                0.25    636.82     70.43      0.00
  J-441                1.09    636.45     47.48      0.00
  J-442                0.40    636.45     48.69      0.00
  J-443                0.12    631.16     51.69      0.00
  J-444                1.08    637.51     62.99      0.00
  J-445                0.07    637.51     67.70      0.00
  J-446                1.21    628.82     56.98      0.00
  J-447                0.39    636.93     68.94      0.00
  J-448                0.30    636.93     68.00      0.00
  J-449                0.56    635.14     78.33      0.00
  J-45                 0.29    640.27     64.42      0.00
  J-450                1.20    637.34     66.93      0.00
  J-451                1.01    636.45     53.03      0.00
  J-452                1.28    636.45     48.45      0.00
  J-453                0.92    636.00     78.95      0.00
  J-454                0.53    631.35     64.39      0.00
  J-455                0.44    637.89     65.16      0.00
  J-456                1.05    633.57     67.62      0.00
  J-457                0.76    632.42     73.38      0.00
  J-458                2.35    635.81     84.84      0.00
  J-459                1.75    635.49     86.86      0.00
  J-46                 0.08    640.28     64.61      0.00
  J-460                0.92    627.02     54.16      0.00
  J-461                0.82    637.57     55.48      0.00
  J-462                0.83    637.57     51.53      0.00
  J-463                0.80    632.17     63.54      0.00
  J-464                0.59    635.64     62.87      0.00
  J-465                0.85    636.54     70.03      0.00
  J-466                0.88    637.52     49.97      0.00
  J-467                0.46    637.51     53.32      0.00
  J-468                0.48    632.81     52.04      0.00
  J-469                0.42    633.01     54.85      0.00
  J-47                 0.42    639.51     60.12      0.00
  J-470                0.31    636.78     68.00      0.00
  J-471                0.60    629.43     52.61      0.00
  J-472                1.21    633.63     78.21      0.00
  J-473                2.70    638.14     71.61      0.00
  J-474                0.56    631.58     70.60      0.00
  J-475                0.13    636.88     71.28      0.00
  J-476                0.38    639.53     67.99      0.00
  J-477                0.64    637.57     58.62      0.00
  J-478                0.78    637.54     50.81      0.00
  J-479                0.23    637.52     50.28      0.00
  J-48                 0.66    639.79     61.87      0.00
  J-480                0.39    633.20     82.89      0.00
  J-481                0.82    637.56     62.07      0.00
  J-482                0.14    636.45     50.44      0.00
  J-483                0.77    636.45     45.94      0.00
  J-484                0.95    634.44     81.69      0.00
  J-485                0.18    615.98     55.36      0.00
  J-486                0.45    637.55     49.02      0.00
  J-487                0.07    637.55     50.90      0.00
  J-488                1.37    631.16     59.85      0.00
  J-489                1.14    630.94     59.39      0.00
  J-49                 0.88    636.93     71.21      0.00
  J-490                0.87    635.25     80.27      0.00
  J-491                0.39    635.24     80.21      0.00
  J-492                0.84    636.59     60.83      0.00
  J-493                0.63    634.30     81.96      0.00
  J-494                0.39    627.36     66.06      0.00
  J-495                0.36    627.45     68.83      0.00
  J-496                1.40    628.02     57.63      0.00
  J-497                0.69    631.16     57.22      0.00
  J-498                0.23    633.97     83.18      0.00
  J-499                0.52    633.92     83.16      0.00
  J-5                  0.49    629.42     51.31      0.00
  J-50                 0.80    636.11     72.79      0.00
  J-500                1.88    637.13     74.11      0.00
  J-501                0.79    636.44     75.01      0.00
  J-502                1.03    632.63     49.71      0.00
  J-503                1.03    632.81     48.08      0.00
  J-504                0.63    628.61     65.87      0.00
  J-505                0.58    628.50     65.77      0.00
  J-506                0.07    637.57     50.29      0.00
  J-507                0.61    632.53     71.27      0.00
  J-508                0.75    630.54     64.32      0.00
  J-509                0.95    635.80     77.47      0.00
  J-51                 0.63    637.64     68.30      0.00
  J-510                0.05    636.78     73.56      0.00
  J-511                1.27    633.78     77.13      0.00
  J-512                0.37    640.12     67.38      0.00
  J-513                1.11    625.04     53.00      0.00
  J-514                0.62    631.26     58.19      0.00
  J-515                0.68    631.26     57.35      0.00
  J-516                1.52    637.49     49.39      0.00
  J-517                0.57    632.49     68.66      0.00
  J-518                0.41    633.54     76.43      0.00
  J-519                0.39    636.27     80.50      0.00
  J-52                 0.71    638.32     65.16      0.00
  J-520                0.53    638.20     58.34      0.00
  J-521                0.84    638.24     67.38      0.00
  J-522                0.45    636.59     78.15      0.00
  J-523                0.72    636.07     77.36      0.00
  J-524                0.41    637.52     50.90      0.00
  J-525                0.90    637.37     56.58      0.00
  J-526                0.47    637.12     68.36      0.00
  J-527                0.75    630.23     61.78      0.00
  J-528                0.36    631.26     50.81      0.00
  J-529                0.44    631.96     66.27      0.00
  J-53                 3.84    637.52     50.34      0.00
  J-530                0.34    636.28     75.72      0.00
  J-531                0.20    636.28     73.42      0.00
  J-532                0.35    637.48     59.81      0.00
  J-533                0.91    623.54     58.52      0.00
  J-534                0.60    624.84     64.81      0.00
  J-535                0.13    624.84     62.89      0.00
  J-536                0.53    637.33     69.28      0.00
  J-537                0.94    634.84     70.68      0.00
  J-538                0.81    635.06     68.97      0.00
  J-539                0.47    625.18     63.92      0.00
  J-54                 0.66    637.52     50.66      0.00
  J-540                0.93    624.98     65.74      0.00
  J-541                0.77    631.81     74.32      0.00
  J-542                0.78    627.65     68.52      0.00
  J-543                0.29    636.87     68.07      0.00
  J-544                0.48    634.60     69.71      0.00
  J-545                0.17    634.60     72.39      0.00
  J-546                0.41    634.78     72.28      0.00
  J-547                0.50    634.83     69.53      0.00
  J-548                0.69    633.01     80.07      0.00
  J-549                0.53    628.07     52.06      0.00
  J-55                 0.19    636.91     70.00      0.00
  J-550                0.38    628.06     55.03      0.00
  J-551                0.23    636.94     70.15      0.00
  J-552                0.32    637.40     50.60      0.00
  J-553                0.42    637.48     61.75      0.00
  J-554                0.83    637.48     57.21      0.00
  J-555                0.68    628.35     66.88      0.00
  J-556                0.12    628.35     66.88      0.00
  J-557                0.62    633.99     83.19      0.00
  J-558                0.46    633.99     83.31      0.00
  J-559                1.03    635.85     84.49      0.00
  J-56                 0.86    636.90     70.05      0.00
  J-560                0.92    635.87     84.16      0.00
  J-561                1.96    636.45     49.58      0.00
  J-562                0.20    636.45     49.31      0.00
  J-563                0.49    631.48     56.58      0.00
  J-564                0.41    636.03     77.39      0.00
  J-565                0.45    631.82     66.76      0.00
  J-566                0.52    633.44     74.13      0.00
  J-567                0.24    633.44     76.01      0.00
  J-568                0.07    637.52     50.23      0.00
  J-569                0.67    631.87     60.82      0.00
  J-57                 0.23    640.77     65.48      0.00
  J-570                0.25    640.86     62.91      0.00
  J-571                0.08    639.11     68.41      0.00
  J-572                0.29    628.35     66.44      0.00
  J-573                1.10    636.46     71.26      0.00
  J-574                0.36    636.46     72.82      0.00
  J-575                0.57    637.49     64.17      0.00
  J-576                0.08    637.40     56.45      0.00
  J-577                0.15    628.02     62.95      0.00
  J-578                0.27    628.02     64.98      0.00
  J-579                0.87    629.35     59.30      0.00
  J-58                 0.14    641.42     62.46      0.00
  J-580                0.72    632.49     70.99      0.00
  J-581                0.51    638.05     73.66      0.00
  J-582                0.65    637.38     52.42      0.00
  J-583                1.09    637.51     68.40      0.00
  J-584                0.62    638.74     60.49      0.00
  J-585                1.28    634.81     70.22      0.00
  J-586                0.62    634.78     72.96      0.00
  J-587                0.32    637.47     51.15      0.00
  J-588                0.89    637.57     50.22      0.00
  J-589                0.85    635.89     83.05      0.00
  J-59                 1.27    631.32     70.36      0.00
  J-590                0.35    635.85     83.49      0.00
  J-591                0.19    636.27     79.12      0.00
  J-592                0.49    638.22     69.98      0.00
  J-593                0.52    632.41     70.02      0.00
  J-594                0.18    637.63     55.15      0.00
  J-595                0.80    629.94     64.99      0.00
  J-596                1.78    630.49     76.13      0.00
  J-597                2.57    631.21     68.87      0.00
  J-598                1.85    637.48     56.76      0.00
  J-599                0.24    637.51     67.15      0.00
  J-6                  1.16    629.37     57.58      0.00
  J-60                 0.47    631.23     77.24      0.00
  J-600                0.05    637.51     68.98      0.00
  J-601                0.37    637.34     64.29      0.00
  J-602                0.62    636.25     75.38      0.00
  J-603                0.18    636.27     82.05      0.00
  J-604                1.02    634.74     79.78      0.00
  J-605                1.37    632.71     80.47      0.00
  J-606                0.16    636.96     68.51      0.00
  J-607                0.23    636.65     77.42      0.00
  J-608                0.05    634.60     67.88      0.00
  J-609                0.20    633.74     83.14      0.00
  J-61                 0.78    622.32     66.32      0.00
  J-610                0.27    627.43     54.76      0.00
  J-611                0.52    636.01     72.85      0.00
  J-612                0.64    637.40     51.37      0.00
  J-613                0.54    634.59     81.70      0.00
  J-614                0.37    636.60     68.22      0.00
  J-615                0.34    636.81     67.54      0.00
  J-616                0.16    634.48     85.02      0.00
  J-617                0.28    637.40     49.73      0.00
  J-618                0.10    637.57     56.50      0.00
  J-619                0.40    637.57     56.05      0.00
  J-62                 0.65    622.32     72.02      0.00
  J-620                0.48    639.50     65.77      0.00
  J-621                0.64    631.14     55.38      0.00
  J-622                0.80    632.23     53.36      0.00
  J-623                0.41    637.89     56.27      0.00
  J-624                0.68    636.09     78.94      0.00
  J-625                0.29    637.57     55.31      0.00
  J-626                1.28    636.92     67.13      0.00
  J-627                0.21    636.92     67.84      0.00
  J-628                1.46    637.57     48.93      0.00
  J-629                0.19    636.27     77.87      0.00
  J-63                 0.91    637.41     47.65      0.00
  J-630                0.25    635.98     77.76      0.00
  J-631                0.85    634.87     80.44      0.00
  J-632                0.41    636.26     78.67      0.00
  J-633                0.12    636.78     76.45      0.00
  J-634                0.99    635.32     65.21      0.00
  J-635                0.42    635.43     65.56      0.00
  J-636                1.01    627.58     72.71      0.00
  J-637                0.22    635.87     84.84      0.00
  J-638                0.52    635.87     84.33      0.00
  J-639                0.88    638.58     78.03      0.00
  J-64                 0.59    637.40     50.82      0.00
  J-640                0.96    631.48     52.30      0.00
  J-641                0.51    638.46     60.61      0.00
  J-642                0.30    637.40     50.77      0.00
  J-643                0.10    637.57     62.09      0.00
  J-644                0.30    637.57     54.63      0.00
  J-645                0.74    634.63     62.42      0.00
  J-646                0.51    634.69     61.78      0.00
  J-647                1.36    635.83     84.86      0.00
  J-648                0.72    634.77     61.65      0.00
  J-649                0.41    634.13     78.60      0.00
  J-65                 0.87    633.74     82.72      0.00
  J-650                0.74    631.82     80.96      0.00
  J-651                0.22    631.82     80.72      0.00
  J-652                0.65    637.56     66.11      0.00
  J-653                0.47    635.22     65.12      0.00
  J-654                0.43    635.21     61.23      0.00
  J-655                0.00    636.09     74.03      0.00
  J-656                0.47    634.76     69.44      0.00
  J-657                0.46    637.38     62.51      0.00
  J-658                1.09    635.26     61.22      0.00
  J-659                0.58    636.09     77.59      0.00
  J-66                 1.17    633.20     82.80      0.00
  J-660                0.28    634.48     86.43      0.00
  J-661                0.90    630.44     65.15      0.00
  J-662                0.09    636.26     81.45      0.00
  J-663                0.38    640.24     65.47      0.00
  J-664                0.55    637.53     50.50      0.00
  J-665                0.94    627.63     71.75      0.00
  J-666                0.32    634.37     74.59      0.00
  J-667                0.09    633.63     78.60      0.00
  J-668                0.05    637.52     50.77      0.00
  J-669                0.94    635.59     61.63      0.00
  J-67                 0.90    631.48     58.73      0.00
  J-670                1.35    632.50     75.48      0.00
  J-671                0.24    637.58     54.73      0.00
  J-672                0.55    634.47     70.88      0.00
  J-673                1.34    631.82     80.52      0.00
  J-674                0.89    628.87     72.00      0.00
  J-675                1.58    627.19     62.86      0.00
  J-676                0.98    633.14     83.13      0.00
  J-677                0.20    633.65     80.61      0.00
  J-678                0.27    635.83     85.30      0.00
  J-679                0.06    628.35     67.06      0.00
  J-68                 0.32    631.48     58.83      0.00
  J-680                0.69    634.32     74.73      0.00
  J-681                0.48    638.92     59.15      0.00
  J-682                0.24    633.20     83.61      0.00
  J-683                1.49    637.52     49.19      0.00
  J-684                0.93    637.53     51.41      0.00
  J-685                0.16    634.15     71.04      0.00
  J-686                0.27    636.59     72.72      0.00
  J-687                0.35    636.37     76.60      0.00
  J-688                0.26    634.47     71.91      0.00
  J-689                0.34    627.57     68.77      0.00
  J-69                 0.95    627.18     55.47      0.00
  J-690                0.52    633.43     73.29      0.00
  J-691                0.28    631.82     79.32      0.00
  J-692                0.25    628.34     66.58      0.00
  J-693                0.16    636.59     60.41      0.00
  J-694                3.14    635.82     75.94      0.00
  J-695                0.20    636.35     75.56      0.00
  J-696                0.18    637.52     53.46      0.00
  J-697                0.72    633.66     77.61      0.00
  J-698                0.20    637.49     71.61      0.00
  J-699                0.23    637.45     68.99      0.00
  J-7                  0.80    635.01     76.67      0.00
  J-70                 0.91    624.82     54.11      0.00
  J-700                0.18    636.25     74.15      0.00
  J-701                0.42    634.32     80.28      0.00
  J-702                0.19    635.59     61.32      0.00
  J-703                0.72    627.28     54.62      0.00
  J-704                0.00    629.53     67.12      0.00
  J-705                0.00    630.36     65.06      0.00
  J-706                0.12    627.54     62.06      0.00
  J-707                0.35    631.48     55.96      0.00
  J-708                0.53    630.55     65.55      0.00
  J-709                0.86    632.44     65.66      0.00
  J-71                 0.05    640.28     65.50      0.00
  J-710                0.39    628.02     65.64      0.00
  J-711                0.08    634.11     74.57      0.00
  J-712                0.24    634.30     81.66      0.00
  J-713                1.77    637.24     55.03      0.00
  J-714                0.49    634.85     75.66      0.00
  J-715                0.04    631.38     76.84      0.00
  J-716                0.88    637.56     61.92      0.00
  J-717                0.82    628.73     69.48      0.00
  J-718                1.29    628.76     64.87      0.00
  J-719                0.06    627.11     54.77      0.00
  J-72                 0.06    640.35     65.28      0.00
  J-720                0.78    630.53     54.95      0.00
  J-721                0.01    640.35     65.13      0.00
  J-722                0.14    627.43     57.56      0.00
  J-723                0.25    631.26     58.39      0.00
  J-724                0.18    635.85     84.22      0.00
  J-725                0.31    634.15     71.85      0.00
  J-726                0.13    635.08     74.68      0.00
  J-727                0.00    630.54     65.52      0.00
  J-728                0.49    633.60     76.09      0.00
  J-729                0.66    632.50     68.90      0.00
  J-73                 1.39    632.80     60.49      0.00
  J-730                0.72    625.49     59.47      0.00
  J-731                0.89    625.49     70.73      0.00
  J-732                0.34    627.63     71.23      0.00
  J-733                0.73    632.91     60.82      0.00
  J-734                3.78    637.51     67.28      0.00
  J-735                0.46    627.44     69.48      0.00
  J-736                0.42    627.43     67.37      0.00
  J-737                0.51    632.70     81.37      0.00
  J-738                1.34    637.49     52.31      0.00
  J-739                0.05    637.38     55.43      0.00
  J-74                 0.41    632.80     57.47      0.00
  J-740                0.46    634.97     79.87      0.00
  J-741                0.09    628.55     57.75      0.00
  J-742                0.81    636.82     75.40      0.00
  J-743                0.26    635.87     84.11      0.00
  J-744                0.06    634.97     80.58      0.00
  J-745                0.80    633.26     61.30      0.00
  J-746                0.18    636.27     82.44      0.00
  J-747                0.47    630.53     57.41      0.00
  J-748                0.39    627.28     65.77      0.00
  J-749                1.09    635.85     83.69      0.00
  J-75                 0.98    637.56     50.38      0.00
  J-750                0.07    628.02     66.79      0.00
  J-751                0.22    629.47     66.77      0.00
  J-752                1.46    636.36     50.33      0.00
  J-753                0.14    627.28     61.27      0.00
  J-754                0.00    636.01     72.85      0.00
  J-755                0.89    638.10     68.30      0.00
  J-756                2.83    637.49     70.47      0.00
  J-757                1.04    628.02     51.50      0.00
  J-758                0.70    630.34     65.58      0.00
  J-759                0.10    627.58     75.42      0.00
  J-76                 1.02    637.56     50.47      0.00
  J-760                0.39    634.06     84.04      0.00
  J-761                0.00    633.53     65.32      0.00
  J-762                0.34    636.09     81.35      0.00
  J-763                0.21    635.87     84.15      0.00
  J-764                0.17    634.16     53.29      0.00
  J-765                0.24    637.30     49.71      0.00
  J-766                0.08    627.65     77.02      0.00
  J-767                0.35    630.53     55.62      0.00
  J-768                0.00    633.59     67.93      0.00
  J-769                0.00    633.67     72.59      0.00
  J-77                 0.94    637.52     50.67      0.00
  J-770                0.19    637.20     49.43      0.00
  J-771                0.08    629.66     55.90      0.00
  J-772                0.14    627.36     61.76      0.00
  J-773                1.09    637.50     55.95      0.00
  J-774                0.00    634.11     74.59      0.00
  J-775                0.00    633.58     75.63      0.00
  J-776                0.00    632.73     69.23      0.00
  J-777                0.00    633.22     70.14      0.00
  J-778                0.00    632.68     69.11      0.00
  J-779                0.00    632.59     70.84      0.00
  J-78                 0.47    637.40     53.67      0.00
  J-780                0.00    632.53     68.94      0.00
  J-781                0.00    633.61     75.76      0.00
  J-782                0.00    633.58     75.67      0.00
  J-783                0.00    634.60     81.77      0.00
  J-784                0.00    634.43     84.09      0.00
  J-785                0.00    633.16     80.19      0.00
  J-786                0.00    633.64     75.85      0.00
  J-787                0.00    634.88     77.89      0.00
  J-788                0.00    635.63     77.87      0.00
  J-789                0.00    634.74     80.16      0.00
  J-79                 0.88    637.39     53.76      0.00
  J-790                0.00    634.61     82.04      0.00
  J-791                0.00    634.60     82.13      0.00
  J-792                0.00    634.61     81.31      0.00
  J-793                0.00    634.61     76.77      0.00
  J-794                0.00    635.26     78.07      0.00
  J-795                0.00    635.34     77.90      0.00
  J-796                0.00    637.17     74.06      0.00
  J-797                0.00    638.68     71.77      0.00
  J-798                0.00    638.76     70.76      0.00
  J-799                0.00    634.94     65.36      0.00
  J-8                  0.73    635.00     81.44      0.00
  J-80                 0.67    632.03     63.45      0.00
  J-800                0.13    634.77     78.06      0.00
  J-801                0.00    634.60     67.75      0.00
  J-802                0.00    634.68     61.98      0.00
  J-803                0.00    634.91     65.83      0.00
  J-804                0.47    637.58     52.81      0.00
  J-805                0.00    636.08     77.55      0.00
  J-806                0.00    637.58     55.00      0.00
  J-807                0.00    638.09     71.59      0.00
  J-808                0.00    638.11     70.72      0.00
  J-809                0.00    633.24     61.28      0.00
  J-81                 0.33    624.72     58.68      0.00
  J-82                 0.57    624.72     62.84      0.00
  J-83                 0.36    627.65     71.12      0.00
  J-84                 0.07    627.65     72.87      0.00
  J-85                 0.25    636.78     76.07      0.00
  J-86                 0.32    636.78     73.94      0.00
  J-87                 0.33    628.51     55.66      0.00
  J-88                 0.16    631.32     69.83      0.00
  J-89                 1.34    633.06     48.14      0.00
  J-9                  1.02    636.38     72.84      0.00
  J-90                 1.27    633.02     53.41      0.00
  J-91                 1.27    631.59     52.51      0.00
  J-92                 0.46    631.48     54.66      0.00
  J-93                 0.20    640.33     65.33      0.00
  J-94                 0.21    640.69     65.45      0.00
  J-95                 0.99    636.38     76.76      0.00
  J-96                 0.45    636.38     77.76      0.00
  J-97                 0.28    639.03     58.94      0.00
  J-98                 0.23    639.05     58.95      0.00
  J-99                 0.89    639.54     71.52      0.00
  O-Pump-1             0.00    639.11     69.09      0.00
  I-Pump-1             0.00    476.20     -1.50      0.00
  R-1                  0.00    476.20     -0.00      0.00  Reservoir
  T-1               1487.25    604.83     51.13      0.00  Tank
  T-2              -2432.21    647.48     63.48      0.00  Tank
  T-3                466.11    620.19     56.20      0.00  Tank
   
   
  Node Results at 0:10:01 hrs:
  --------------------------------------------------------
                     Demand      Head  Pressure  化学成分
  Node                  gpm        ft       psi      mg/L
  --------------------------------------------------------
  J-1                  0.00    621.80     57.74      0.00
  J-10                 0.63    635.66     67.69      0.00
  J-100                0.62    637.85     73.04      0.00
  J-101                0.14    637.76     71.35      0.00
  J-102                1.06    637.83     69.41      0.00
  J-103                0.37    636.53     58.58      0.00
  J-104                0.44    636.53     53.56      0.00
  J-105                0.39    635.48     81.46      0.00
  J-106                0.25    635.48     81.24      0.00
  J-107                1.73    632.77     63.42      0.00
  J-108                1.71    632.70     60.52      0.00
  J-109                0.66    638.86     69.16      0.00
  J-11                 0.42    629.24     51.25      0.00
  J-110                0.22    638.79     70.16      0.00
  J-111                0.42    633.02     75.58      0.00
  J-112                0.32    633.00     75.43      0.00
  J-113                0.42    636.28     50.56      0.00
  J-114                0.18    636.28     47.42      0.00
  J-115                0.53    636.54     79.94      0.00
  J-116                0.94    636.55     76.69      0.00
  J-117                0.48    636.60     69.63      0.00
  J-118                1.32    636.14     74.23      0.00
  J-119                1.24    627.10     52.91      0.00
  J-12                 0.84    629.23     56.99      0.00
  J-120                0.71    629.71     54.90      0.00
  J-121                0.51    636.59     49.26      0.00
  J-122                0.69    636.59     49.85      0.00
  J-123                0.62    635.68     45.36      0.00
  J-124                0.56    635.67     49.30      0.00
  J-125                0.58    632.78     56.10      0.00
  J-126                0.95    633.55     61.71      0.00
  J-127                0.10    642.89     61.48      0.00
  J-128                0.32    639.16     64.59      0.00
  J-129                0.22    638.96     63.24      0.00
  J-13                 0.76    624.99     63.73      0.00
  J-130                0.74    634.61     77.77      0.00
  J-131                0.37    634.46     78.36      0.00
  J-132                0.90    636.59     50.39      0.00
  J-133                0.56    636.58     51.90      0.00
  J-134                0.43    638.96     59.78      0.00
  J-135                0.54    639.39     60.87      0.00
  J-136                1.55    632.04     68.75      0.00
  J-137                1.41    632.07     68.83      0.00
  J-138                0.25    618.70     56.68      0.00
  J-139                1.15    621.70     61.83      0.00
  J-14                 0.65    625.76     61.80      0.00
  J-140                0.44    633.32     83.33      0.00
  J-141                1.45    633.45     82.63      0.00
  J-142                0.89    633.66     82.61      0.00
  J-143                0.34    633.66     83.78      0.00
  J-144                0.35    636.12     69.37      0.00
  J-145                0.63    634.22     81.12      0.00
  J-146                0.58    636.53     53.17      0.00
  J-147                0.51    635.31     78.25      0.00
  J-148                0.44    635.31     74.23   3698.53
  J-149                1.18    634.58     76.00      0.00
  J-15                 0.37    629.38     56.54      0.00
  J-150                1.37    634.54     81.35      0.00
  J-151                0.17    635.68     45.45      0.00
  J-152                0.15    635.68     46.61      0.00
  J-153                0.82    625.66     59.25      0.00
  J-154                0.93    624.17     54.23      0.00
  J-155                0.36    630.77     68.79      0.00
  J-156                0.63    630.70     68.68      0.00
  J-157                0.12    640.65     61.96      0.00
  J-158                0.49    640.09     62.15      0.00
  J-159                0.83    634.08     77.51      0.00
  J-16                 0.56    629.60     61.05      0.00
  J-160                0.33    634.07     79.73      0.00
  J-161                1.07    632.65     81.70      0.00
  J-162                0.39    632.65     82.97      0.00
  J-163                0.95    636.61     56.76      0.00
  J-164                1.48    636.61     50.08      0.00
  J-165                0.23    634.21     77.28      0.00
  J-166                0.48    633.95     81.90      0.00
  J-167                0.74    637.18     55.04      0.00
  J-168                0.59    636.99     55.73      0.00
  J-169                0.93    636.78     56.09      0.00
  J-17                 0.57    632.19     55.40      0.00
  J-170                0.46    636.78     55.62      0.00
  J-171                1.12    636.53     67.54      0.00
  J-172                0.18    636.60     67.67      0.00
  J-173                0.13    636.60     68.72      0.00
  J-174                0.46    637.80     70.30      0.00
  J-175                0.46    638.05     69.60      0.00
  J-176                0.57    637.47     73.65      0.00
  J-177                0.47    637.21     80.00      0.00
  J-178                0.16    639.00     63.31      0.00
  J-179                0.89    638.75     66.69      0.00
  J-18                 0.67    632.12     51.43      0.00
  J-180                0.76    634.19     76.52      0.00
  J-181                0.59    636.78     79.84      0.00
  J-182                1.25    633.60     68.79      0.00
  J-183                1.02    633.69     72.10      0.00
  J-184                0.50    636.50     67.23      0.00
  J-185                0.64    636.25     67.03      0.00
  J-186                0.16    631.36     67.77      0.00
  J-187                0.62    631.36     66.66      0.00
  J-188                0.99    631.90     72.67      0.00
  J-189                0.44    631.89     70.80      0.00
  J-19                 0.24    636.03     69.32      0.00
  J-190                1.26    632.65     69.63      0.00
  J-191                0.44    631.87     68.47      0.00
  J-192                0.89    636.61     50.11      0.00
  J-193                0.86    636.60     50.52      0.00
  J-194                0.47    638.04     60.29      0.00
  J-195                0.42    638.60     60.49      0.00
  J-196                0.27    631.92     69.64      0.00
  J-197                0.67    631.95     68.30      0.00
  J-198                0.14    628.17     66.37      0.00
  J-199                0.13    628.17     66.36      0.00
  J-2                  0.00    629.95     61.08      0.00
  J-20                 0.36    636.03     68.32      0.00
  J-200                0.61    636.58     51.41      0.00
  J-201                0.25    634.17     79.40      0.00
  J-202                0.32    636.25     71.54      0.00
  J-203                0.61    626.85     57.93      0.00
  J-204                0.71    626.69     60.58      0.00
  J-205                1.26    634.19     65.85      0.00
  J-206                0.73    634.31     69.45      0.00
  J-207                0.42    632.65     80.13      0.00
  J-208                0.66    631.28     81.15      0.00
  J-209                0.28    631.28     80.72      0.00
  J-21                 0.32    630.97     69.71      0.00
  J-210                0.48    636.13     70.58      0.00
  J-211                0.45    636.78     55.20      0.00
  J-212                0.55    635.86     68.99      0.00
  J-213                0.79    635.63     70.31      0.00
  J-214                0.68    638.08     63.30      0.00
  J-215                0.41    638.04     62.84      0.00
  J-216                0.49    634.02     73.90      0.00
  J-217                0.46    633.05     72.06      0.00
  J-218                0.67    622.82     59.69      0.00
  J-219                1.20    626.19     63.34      0.00
  J-22                 0.11    630.97     70.11      0.00
  J-220                0.35    633.78     83.95      0.00
  J-221                0.72    633.95     81.49      0.00
  J-222                0.94    637.20     68.56      0.00
  J-223                0.39    639.31     65.96      0.00
  J-224                0.58    634.59     78.25      0.00
  J-225                0.88    634.17     79.13      0.00
  J-226                0.41    631.74     63.36      0.00
  J-227                0.49    633.71     76.11      0.00
  J-228                1.49    636.71     49.71      0.00
  J-229                0.00    636.32     75.88      0.00
  J-23                 0.58    631.85     76.92      0.00
  J-230                0.34    632.96     64.62      0.00
  J-231                0.88    632.97     64.76      0.00
  J-232                1.05    632.75     65.41      0.00
  J-233                0.14    639.57     65.41      0.00
  J-234                0.34    639.43     68.67      0.00
  J-235                0.70    633.81     83.97      0.00
  J-236                1.03    636.68     61.40      0.00
  J-237                0.67    636.96     58.91      0.00
  J-238                0.39    633.04     65.67      0.00
  J-239                0.32    633.04     66.22      0.00
  J-24                 1.02    631.57     76.06      0.00
  J-240                0.65    620.26     54.32      0.00
  J-241                0.30    620.03     54.45      0.00
  J-242                0.52    638.05     57.80      0.00
  J-243                0.13    639.69     61.99      0.00
  J-244                1.10    630.04     61.12      0.00
  J-245                1.07    629.10     60.82      0.00
  J-246                0.77    624.94     54.14      0.00
  J-247                0.86    636.85     59.31      0.00
  J-248                0.53    637.14     56.96      0.00
  J-249                0.28    636.52     53.80      0.00
  J-25                 2.24    632.70     59.62      0.00
  J-250                0.62    635.31     74.00   1339.99
  J-251                0.81    635.46     76.46      0.00
  J-252                0.65    636.60     67.42      0.00
  J-253                0.69    633.06     75.50      0.00
  J-254                0.58    633.07     75.73      0.00
  J-255                0.87    633.07     80.63      0.00
  J-256                0.81    635.24     76.15      0.00
  J-257                0.00    628.71     64.83      0.00
  J-258                0.22    636.16     68.53      0.00
  J-259                0.40    636.68     49.31      0.00
  J-26                 1.23    632.85     64.45      0.00
  J-260                0.12    635.20     78.53      0.00
  J-261                1.15    635.20     78.11      0.00
  J-262                0.52    627.38     53.83      0.00
  J-263                0.70    627.89     51.51      0.00
  J-264                0.25    639.93     61.54      0.00
  J-265                0.88    636.47     53.95      0.00
  J-266                0.37    636.37     50.40      0.00
  J-267                0.60    633.84     83.98      0.00
  J-268                0.52    631.93     72.67      0.00
  J-269                0.63    633.05     83.55      0.00
  J-27                 1.13    636.73     54.91      0.00
  J-270                1.20    632.48     75.01      0.00
  J-271                0.46    635.99     70.79      0.00
  J-272                0.49    639.12     61.50      0.00
  J-273                0.83    635.60     72.77      0.00
  J-274                0.38    635.62     70.14      0.00
  J-275                0.07    638.74     65.26      0.00
  J-276                1.03    633.85     67.01      0.00
  J-277                0.88    633.62     70.13      0.00
  J-278                0.13    640.04     62.06      0.00
  J-279                1.31    635.28     73.46      0.00
  J-28                 0.78    636.54     50.50      0.00
  J-280                0.33    635.23     72.57      0.00
  J-281                0.29    635.95     68.65      0.00
  J-282                0.41    635.97     67.60      0.00
  J-283                0.68    629.10     60.91      0.00
  J-284                0.77    628.41     58.05      0.00
  J-285                0.49    636.66     50.50      0.00
  J-286                0.73    636.64     49.06      0.00
  J-287                0.06    631.95     73.33      0.00
  J-288                0.37    631.98     72.98      0.00
  J-289                0.32    635.22     75.79      0.00
  J-29                 0.33    631.90     76.92      0.00
  J-290                0.62    634.72     67.47      0.00
  J-291                0.90    634.68     69.73      0.00
  J-292                0.02    635.48     81.24      0.00
  J-293                0.79    636.64     49.52      0.00
  J-294                0.28    636.62     68.37      0.00
  J-295                0.13    640.34     61.93      0.00
  J-296                0.97    635.71     73.46      0.00
  J-297                0.29    636.60     67.85      0.00
  J-298                0.45    637.04     56.42      0.00
  J-299                0.51    634.35     72.04      0.00
  J-3                  0.46    625.65     59.61      0.00
  J-30                 0.72    630.52     59.74      0.00
  J-300                0.66    637.62     66.33      0.00
  J-301                0.34    637.94     58.30      0.00
  J-302                0.02    638.74     64.45      0.00
  J-303                0.51    636.63     53.18      0.00
  J-304                0.87    632.29     79.18      0.00
  J-305                1.26    630.20     65.23      0.00
  J-306                0.50    635.56     71.04      0.00
  J-307                0.82    635.59     70.10      0.00
  J-308                0.29    635.59     71.78      0.00
  J-309                1.33    631.37     77.57      0.00
  J-31                 1.46    631.58     63.12      0.00
  J-310                1.07    630.66     73.57      0.00
  J-311                0.00    625.76     60.53      0.00
  J-312                0.00    628.53     69.66      0.00
  J-313                0.27    636.06     70.66      0.00
  J-314                0.53    630.97     67.97      0.00
  J-315                0.85    631.25     71.23      0.00
  J-316                0.20    630.97     74.40      0.00
  J-317                0.07    630.97     72.95      0.00
  J-318                0.37    627.45     65.18      0.00
  J-319                0.49    627.45     66.77      0.00
  J-32                 0.56    636.12     70.40      0.00
  J-320                0.55    627.87     55.39      0.00
  J-321                0.47    627.45     54.72      0.00
  J-322                0.52    627.43     66.55      0.00
  J-323                0.35    627.43     70.05      0.00
  J-324                0.78    634.21     70.79      0.00
  J-325                0.69    634.12     69.41      0.00
  J-326                0.33    627.43     62.47      0.00
  J-327                1.11    633.98     81.68      0.00
  J-328                1.24    633.03     75.55      0.00
  J-329                0.57    633.73     74.67      0.00
  J-33                 0.87    636.44     64.21      0.00
  J-330                0.62    633.60     70.19      0.00
  J-331                0.82    627.19     54.50      0.00
  J-332                0.66    627.07     55.06      0.00
  J-333                0.35    627.43     63.87      0.00
  J-334                0.59    627.43     65.14      0.00
  J-335                2.25    636.51     51.51      0.00
  J-336                0.74    636.59     49.95      0.00
  J-337                0.95    632.76     70.29      0.00
  J-338                0.58    627.87     66.40      0.00
  J-339                0.88    627.87     64.56      0.00
  J-34                 0.66    632.40     59.45      0.00
  J-340                0.46    627.28     65.66      0.00
  J-341                0.35    627.28     73.87      0.00
  J-342                0.64    632.85     64.41      0.00
  J-343                0.15    632.90     64.88      0.00
  J-344                0.15    627.03     55.52      0.00
  J-345                0.43    626.94     54.91      0.00
  J-346                1.17    634.02     67.21      0.00
  J-347                0.97    633.90     67.59      0.00
  J-348                0.72    628.62     52.92      0.00
  J-349                0.41    628.44     56.87      0.00
  J-35                 1.64    632.40     67.83      0.00
  J-350                0.33    627.92     52.39      0.00
  J-351                0.92    627.22     51.14      0.00
  J-352                0.00    639.31     65.98      0.00
  J-353                0.33    633.66     69.13      0.00
  J-354                0.86    631.27     67.57      0.00
  J-355                0.78    618.98     56.36      0.00
  J-356                0.33    618.87     56.49      0.00
  J-357                0.55    620.17     55.32      0.00
  J-358                0.19    637.97     68.73      0.00
  J-359                0.74    627.06     53.38      0.00
  J-36                 0.57    631.57     60.87      0.00
  J-360                0.48    627.33     68.82      0.00
  J-361                1.70    627.28     63.83      0.00
  J-362                0.46    630.82     68.79      0.00
  J-363                0.98    637.49     62.16      0.00
  J-364                1.13    627.75     64.95      0.00
  J-365                1.22    627.63     62.53      0.00
  J-366                1.34    628.93     64.91      0.00
  J-367                0.65    626.91     52.84      0.00
  J-368                0.37    631.49     61.30      0.00
  J-369                1.99    632.40     57.67      0.00
  J-37                 1.01    631.50     65.21      0.00
  J-370                0.60    633.55     69.76      0.00
  J-371                0.77    633.03     75.81      0.00
  J-372                0.00    630.20     76.38      0.00
  J-373                0.00    633.01     67.34      0.00
  J-374                0.37    627.48     55.64      0.00
  J-375                0.76    631.89     73.24      0.00
  J-376                0.32    635.95     77.09      0.00
  J-377                1.36    633.60     81.81      0.00
  J-378                1.22    632.91     66.04      0.00
  J-379                0.41    631.84     79.76      0.00
  J-38                 0.60    631.55     68.15      0.00
  J-380                2.46    636.72     53.59      0.00
  J-381                0.59    636.69     50.44      0.00
  J-382                0.40    628.05     63.08      0.00
  J-383                0.68    630.77     55.13      0.00
  J-384                0.68    630.77     53.26      0.00
  J-385                0.58    627.44     60.37      0.00
  J-386                1.41    636.60     50.11      0.00
  J-387                0.25    628.38     56.10      0.00
  J-388                0.66    632.24     61.12      0.00
  J-389                0.15    627.45     68.76      0.00
  J-39                 0.15    635.88     68.86      0.00
  J-390                0.88    631.45     51.88      0.00
  J-391                1.40    630.86     53.03      0.00
  J-392                0.69    618.95     54.45      0.00
  J-393                0.87    637.44     59.12      0.00
  J-394                0.72    636.61     53.45      0.00
  J-395                0.55    633.84     84.80      0.00
  J-396                1.57    633.79     68.91      0.00
  J-397                0.56    635.78     64.19      0.00
  J-398                0.86    636.84     54.53      0.00
  J-399                0.08    631.93     72.15      0.00
  J-4                  1.36    627.45     65.19      0.00
  J-40                 0.34    635.88     72.14      0.00
  J-400                0.31    636.47     51.20      0.00
  J-401                0.00    629.22     67.15      0.00
  J-402                0.62    632.12     74.74      0.00
  J-403                0.04    636.60     68.21      0.00
  J-404                0.75    633.96     80.83      0.00
  J-405                0.09    626.85     59.06      0.00
  J-406                0.33    635.99     72.84      0.00
  J-407                0.47    636.05     69.89      0.00
  J-408                0.52    634.78     79.47      0.00
  J-409                0.39    629.14     52.40      0.00
  J-41                 0.92    632.03     70.62      0.00
  J-410                0.95    630.06     65.33      0.00
  J-411                0.52    635.56     73.59      0.00
  J-412                0.13    627.03     55.50      0.00
  J-413                0.03    627.03     56.84      0.00
  J-414                0.67    633.09     65.31      0.00
  J-415                0.00    629.30     67.11      0.00
  J-416                0.32    635.59     81.13      0.00
  J-417                0.92    631.86     68.72      0.00
  J-418                0.92    636.69     49.41      0.00
  J-419                0.49    636.68     50.11      0.00
  J-42                 1.22    631.36     68.04      0.00
  J-420                0.68    636.30     71.97      0.00
  J-421                1.93    636.32     75.88      0.00
  J-422                0.65    636.35     67.92      0.00
  J-423                0.92    636.76     53.79      0.00
  J-424                0.40    636.79     54.55      0.00
  J-425                0.40    634.59     78.21      0.00
  J-426                0.14    634.59     77.41      0.00
  J-427                0.79    633.91     79.38      0.00
  J-428                0.72    634.18     68.38      0.00
  J-429                0.39    637.19     57.72      0.00
  J-43                 0.33    636.19     67.13      0.00
  J-430                0.09    641.53     61.01      0.00
  J-431                1.78    635.27     73.38      0.00
  J-432                0.12    633.06     72.56      0.00
  J-433                0.65    621.76     57.57      0.00
  J-434                0.52    632.55     51.46      0.00
  J-435                0.16    640.87     61.03      0.00
  J-436                0.29    633.10     72.98      0.00
  J-437                0.61    635.57     81.71      0.00
  J-438                1.39    636.60     52.49      0.00
  J-439                0.34    636.60     53.72      0.00
  J-44                 0.27    636.13     68.06      0.00
  J-440                0.25    636.01     70.08      0.00
  J-441                1.09    635.68     47.14      0.00
  J-442                0.40    635.67     48.36      0.00
  J-443                0.12    630.77     51.52      0.00
  J-444                1.08    636.63     62.61      0.00
  J-445                0.07    636.63     67.32      0.00
  J-446                1.21    628.61     56.89      0.00
  J-447                0.39    636.11     68.59      0.00
  J-448                0.30    636.11     67.65      0.00
  J-449                0.56    634.47     78.04      0.00
  J-45                 0.29    639.24     63.97      0.00
  J-450                1.20    636.48     66.56      0.00
  J-451                1.01    635.68     52.69      0.00
  J-452                1.28    635.68     48.12      0.00
  J-453                0.92    635.22     78.61      0.00
  J-454                0.53    630.95     64.22      0.00
  J-455                0.44    637.00     64.77      0.00
  J-456                1.05    633.01     67.37      0.00
  J-457                0.76    631.94     73.17      0.00
  J-458                2.35    635.04     84.50      0.00
  J-459                1.75    634.72     86.53      0.00
  J-46                 0.08    639.25     64.16      0.00
  J-460                0.92    626.96     54.13      0.00
  J-461                0.82    636.69     55.10      0.00
  J-462                0.83    636.69     51.14      0.00
  J-463                0.80    631.71     63.35      0.00
  J-464                0.59    634.87     62.54      0.00
  J-465                0.85    635.72     69.68      0.00
  J-466                0.88    636.64     49.59      0.00
  J-467                0.46    636.63     52.94      0.00
  J-468                0.48    632.30     51.82      0.00
  J-469                0.42    632.48     54.62      0.00
  J-47                 0.42    638.53     59.70      0.00
  J-470                0.31    635.97     67.65      0.00
  J-471                0.60    629.17     52.50      0.00
  J-472                1.21    633.05     77.96      0.00
  J-473                2.70    637.25     71.22      0.00
  J-474                0.56    631.16     70.41      0.00
  J-475                0.13    636.06     70.93      0.00
  J-476                0.38    638.55     67.56      0.00
  J-477                0.64    636.69     58.24      0.00
  J-478                0.78    636.66     50.43      0.00
  J-479                0.23    636.64     49.89      0.00
  J-48                 0.66    638.79     61.43      0.00
  J-480                0.39    632.65     82.65      0.00
  J-481                0.82    636.69     61.69      0.00
  J-482                0.14    635.68     50.10      0.00
  J-483                0.77    635.68     45.60      0.00
  J-484                0.95    633.80     81.41      0.00
  J-485                0.18    616.82     55.72      0.00
  J-486                0.45    636.67     48.64      0.00
  J-487                0.07    636.67     50.52      0.00
  J-488                1.37    630.77     59.68      0.00
  J-489                1.14    630.57     59.23      0.00
  J-49                 0.88    636.09     70.85      0.00
  J-490                0.87    634.56     79.97      0.00
  J-491                0.39    634.55     79.91      0.00
  J-492                0.84    635.77     60.48      0.00
  J-493                0.63    633.67     81.69      0.00
  J-494                0.39    627.26     66.01      0.00
  J-495                0.36    627.34     68.78      0.00
  J-496                1.40    627.87     57.56      0.00
  J-497                0.69    630.77     57.05      0.00
  J-498                0.23    633.37     82.92      0.00
  J-499                0.52    633.32     82.90      0.00
  J-5                  0.49    629.17     51.20      0.00
  J-50                 0.80    635.32     72.45      0.00
  J-500                1.88    636.31     73.76      0.00
  J-501                0.79    635.65     74.67      0.00
  J-502                1.03    632.12     49.49      0.00
  J-503                1.03    632.29     47.86      0.00
  J-504                0.63    628.43     65.79      0.00
  J-505                0.58    628.32     65.70      0.00
  J-506                0.07    636.69     49.91      0.00
[...]
  J-524                0.26    627.81     46.69      0.00
  J-525                0.57    627.76     52.41      0.00
  J-526                0.30    627.69     64.27      0.00
  J-527                0.47    627.10     60.42      0.00
  J-528                0.23    627.21     49.05      0.00
  J-529                0.28    627.26     64.23      0.00
  J-53                 2.43    627.81     46.13      0.00
  J-530                0.22    627.88     72.08      0.00
  J-531                0.13    627.88     69.78      0.00
  J-532                0.22    627.79     55.61      0.00
  J-533                0.58    623.64     58.57      0.00
  J-534                0.38    624.03     64.46      0.00
  J-535                0.08    626.53     63.62      0.00
  J-536                0.34    627.77     65.13      0.00
  J-537                0.59    627.06     67.31    307.02
  J-538                0.51    627.13     65.54      0.00
  J-539                0.30    626.57     64.52      0.00
  J-54                 0.42    627.81     46.45      0.00
  J-540                0.59    626.54     66.41      0.00
  J-541                0.48    627.24     72.34      0.00
  J-542                0.50    626.79     68.15      0.00
  J-543                0.19    627.81     64.15      0.00
  J-544                0.31    626.97     66.40      0.00
  J-545                0.11    626.97     69.09      0.00
  J-546                0.26    627.04     68.93      0.00
  J-547                0.32    627.06     66.16      0.00
  J-548                0.43    626.50     77.25      0.00
  J-549                0.33    626.84     51.53      0.00
  J-55                 0.12    627.80     66.05      0.00
  J-550                0.24    626.84     54.50      0.00
  J-551                0.14    627.81     66.20      0.00
  J-552                0.20    627.76     46.42      0.00
  J-553                0.27    627.79     57.55      0.00
  J-554                0.53    627.79     53.02      0.00
  J-555                0.43    626.86     66.24      0.00
  J-556                0.07    626.86     66.24      0.00
  J-557                0.39    627.48     80.37      0.00
  J-558                0.29    627.47     80.49      0.00
  J-559                0.65    627.41     80.83      0.00
  J-56                 0.55    627.79     66.11      0.00
  J-560                0.59    627.41     80.50      0.00
  J-561                1.24    627.86     45.86      0.00
  J-562                0.13    627.86     45.59      0.00
  J-563                0.31    627.23     54.74      0.00
  J-564                0.26    627.47     73.68    392.89
  J-565                0.29    627.25     64.78      0.00
  J-566                0.33    627.42     71.52      0.00
  J-567                0.15    627.42     73.40      0.00
  J-568                0.05    627.81     46.02      0.00
  J-569                0.42    627.31     58.84      0.00
  J-57                 0.15    628.56     60.18      0.00
  J-570                0.16    628.57     57.58      0.00
  J-571                0.05    628.29     63.72      0.00
  J-572                0.18    626.86     65.80      0.00
  J-573                0.70    627.63     67.43      0.00
  J-574                0.23    627.63     69.00      0.00
  J-575                0.36    627.79     59.97      0.00
  J-576                0.05    627.77     52.28      0.00
  J-577                0.09    626.83     62.43      0.00
  J-578                0.17    626.83     64.46      0.00
  J-579                0.55    627.02     58.29      0.00
  J-58                 0.09    628.67     56.94      0.00
  J-580                0.45    627.31     68.74      0.00
  J-581                0.33    628.13     69.36      0.00
  J-582                0.41    627.76     48.25      0.00
  J-583                0.69    627.80     64.19      0.00
  J-584                0.39    628.09     55.88      0.00
  J-585                0.81    627.05     66.86      0.00
  J-586                0.39    627.04     69.60      0.00
  J-587                0.20    627.79     46.95      0.00
  J-588                0.57    627.83     46.00      0.00
  J-589                0.54    627.42     79.38      0.00
  J-59                 0.80    625.98     68.05      0.00
  J-590                0.22    627.40     79.83      0.00
  J-591                0.12    627.59     75.36      0.00
  J-592                0.31    627.97     65.54      0.00
  J-593                0.33    627.31     67.81      0.00
  J-594                0.11    627.83     50.91      0.00
  J-595                0.51    627.06     63.74      0.00
  J-596                1.13    627.07     74.65      0.00
  J-597                1.63    627.17     67.12      0.00
  J-598                1.17    627.79     52.56      0.00
  J-599                0.15    627.80     62.95      0.00
  J-6                  0.73    626.99     56.55      0.00
  J-60                 0.30    625.96     74.95      0.00
  J-600                0.03    627.80     64.78      0.00
  J-601                0.24    627.76     60.14      0.00
  J-602                0.40    627.57     71.62      0.00
  J-603                0.12    627.59     78.29      0.00
  J-604                0.65    627.03     76.44      0.00
  J-605                0.87    626.40     77.73      0.00
  J-606                0.10    627.80     64.55      0.00
  J-607                0.15    627.79     73.58      0.00
  J-608                0.03    626.97     64.58      0.00
  J-609                0.13    627.45     80.41      0.00
  J-61                 0.49    623.28     66.74      0.00
  J-610                0.17    626.77     54.48      0.00
  J-611                0.33    627.44     69.14      0.00
  J-612                0.41    627.77     47.19      0.00
  J-613                0.34    627.55     78.65      0.00
  J-614                0.23    627.78     64.40      0.00
  J-615                0.22    627.80     63.64      0.00
  J-616                0.10    627.53     82.01      0.00
  J-617                0.18    627.77     45.56      0.00
  J-618                0.06    627.83     52.28      0.00
  J-619                0.25    627.83     51.83      0.00
  J-62                 0.41    623.28     72.43      0.00
  J-620                0.30    628.30     60.92      0.00
  J-621                0.40    627.19     53.67      0.00
  J-622                0.51    627.32     51.23      0.00
  J-623                0.26    627.89     51.94      0.00
  J-624                0.43    627.50     75.22      0.00
  J-625                0.19    627.83     51.09      0.00
  J-626                0.81    627.79     63.17      0.00
  J-627                0.13    627.79     63.89      0.00
  J-628                0.92    627.82     44.71      0.00
  J-629                0.12    627.59     74.11      0.00
  J-63                 0.58    627.77     43.47      0.00
  J-630                0.16    627.75     74.20      0.00
  J-631                0.54    627.58     77.28      0.00
  J-632                0.26    627.58     74.91      0.00
  J-633                0.08    627.80     72.56      0.00
  J-634                0.63    627.20     61.70      0.00
  J-635                0.27    627.24     62.01      0.00
  J-636                0.64    624.86     71.53      0.00
  J-637                0.14    627.41     81.18      0.00
  J-638                0.33    627.41     80.66      0.00
  J-639                0.56    628.20     73.53      0.00
  J-64                 0.38    627.77     46.64      0.00
  J-640                0.61    627.23     50.46      0.00
  J-641                0.33    628.02     56.09      0.00
  J-642                0.19    627.77     46.59      0.00
  J-643                0.06    627.83     57.87      0.00
  J-644                0.19    627.83     50.40      0.00
  J-645                0.47    626.99     59.10      0.00
  J-646                0.32    627.01     58.45      0.00
  J-647                0.86    627.40     81.21      0.00
  J-648                0.46    627.03     58.29      0.00
  J-649                0.26    627.50     75.72      0.00
  J-65                 0.55    627.45     79.99      0.00
  J-650                0.47    626.13     78.50      0.00
  J-651                0.14    626.13     78.26      0.00
  J-652                0.41    627.82     61.89      0.00
  J-653                0.30    627.17     61.63      0.00
  J-654                0.27    627.16     57.75      0.00
  J-655                0.00    627.49     70.30   3419.27
  J-656                0.30    627.04     66.09      0.00
  J-657                0.29    627.76     58.34      0.00
  J-658                0.69    627.18     57.71      0.00
  J-659                0.37    627.50     73.86      0.00
  J-66                 0.74    627.39     80.28      0.00
  J-660                0.18    627.53     83.42      0.00
  J-661                0.57    627.10     63.71      0.00
  J-662                0.06    627.58     77.69      0.00
  J-663                0.24    628.44     60.36      0.00
  J-664                0.35    627.81     46.29      0.00
  J-665                0.60    624.87     70.55      0.00
  J-666                0.20    626.92     71.36      0.00
  J-667                0.06    627.44     75.92      0.00
  J-668                0.03    627.81     46.56      0.00
  J-669                0.59    627.27     58.02      0.00
  J-67                 0.57    627.23     56.89      0.00
  J-670                0.85    627.31     73.23      0.00
  J-671                0.15    627.83     50.51      0.00
  J-672                0.35    626.94     67.61      0.00
  J-673                0.85    626.13     78.05      0.00
  J-674                0.57    626.92     71.16      0.00
  J-675                1.00    626.74     62.66      0.00
  J-676                0.62    627.38     80.63      0.00
  J-677                0.13    627.44     77.92      0.00
  J-678                0.17    627.40     81.64      0.00
  J-679                0.04    626.86     66.42      0.00
  J-68                 0.20    627.23     56.99      0.00
  J-680                0.43    626.90     71.52      0.00
  J-681                0.30    628.14     54.48      0.00
  J-682                0.15    627.39     81.09      0.00
  J-683                0.94    627.81     44.98      0.00
  J-684                0.59    627.81     47.20      0.00
  J-685                0.10    627.60     68.20      0.00
  J-686                0.17    627.78     68.90      0.00
  J-687                0.22    627.65     72.82      0.00
  J-688                0.17    626.94     68.65      0.00
  J-689                0.22    624.85     67.59      0.00
  J-69                 0.60    626.80     55.30      0.00
  J-690                0.33    627.42     70.69      0.00
  J-691                0.18    626.13     76.86      0.00
  J-692                0.16    626.86     65.94      0.00
  J-693                0.10    627.54     56.49      0.00
  J-694                1.99    627.08     72.15      0.00
  J-695                0.13    627.54     71.74      0.00
  J-696                0.11    627.81     49.26      0.00
  J-697                0.46    627.45     74.92      0.00
  J-698                0.13    627.79     67.41      0.00
  J-699                0.14    627.94     64.87      0.00
  J-7                  0.51    627.59     73.46      0.00
  J-70                 0.58    626.53     54.85      0.00
  J-700                0.11    627.57     70.39      0.00
  J-701                0.26    626.90     77.07      0.00
  J-702                0.12    627.27     57.72      0.00
  J-703                0.46    626.76     54.40      0.00
  J-704                0.00    627.01     66.02      0.00
  J-705                0.00    627.10     63.64      0.00
  J-706                0.08    626.78     61.73      0.00
  J-707                0.22    627.23     54.12      0.00
  J-708                0.34    627.12     64.06      0.00
  J-709                0.55    627.38     63.47      0.00
  J-71                 0.03    628.48     60.38      0.00
  J-710                0.25    626.83     65.13      0.00
  J-711                0.05    627.56     71.73      0.00
  J-712                0.15    627.51     78.71      0.00
  J-713                1.12    627.69     50.90      0.00
  J-714                0.31    627.69     72.56      0.00
  J-715                0.03    627.19     75.03      0.00
  J-716                0.56    627.82     57.70      0.00
  J-717                0.52    626.91     68.70      0.00
  J-718                0.82    626.92     64.08      0.00
  J-719                0.04    626.74     54.61      0.00
  J-72                 0.04    628.49     60.14      0.00
  J-720                0.49    627.15     53.48      0.00
  J-721                0.00    628.49     59.99      0.00
  J-722                0.09    626.77     57.28      0.00
  J-723                0.16    627.21     56.64      0.00
  J-724                0.12    627.41     80.56      0.00
  J-725                0.20    627.60     69.01      0.00
  J-726                0.08    627.14     71.23      0.00
  J-727                0.00    627.12     64.03      0.00
  J-728                0.31    627.44     73.42      0.00
  J-729                0.42    627.32     66.65      0.00
  J-73                 0.88    627.42     58.16      0.00
  J-730                0.46    624.23     58.92      0.00
  J-731                0.57    624.23     70.18      0.00
  J-732                0.22    624.87     70.04      0.00
  J-733                0.46    627.40     58.43      0.00
  J-734                2.39    627.80     63.07      0.00
  J-735                0.29    626.77     69.18      0.00
  J-736                0.27    626.76     67.08      0.00
  J-737                0.33    626.40     78.63      0.00
  J-738                0.85    627.80     48.11      0.00
  J-739                0.03    627.76     51.26      0.00
  J-74                 0.26    627.42     55.14      0.00
  J-740                0.29    627.11     76.47      0.00
  J-741                0.06    626.95     57.06      0.00
  J-742                0.51    627.96     71.56      0.00
  J-743                0.17    627.41     80.44      0.00
  J-744                0.04    627.11     77.17      0.00
  J-745                0.50    627.47     58.80      0.00
  J-746                0.12    627.59     78.68      0.00
  J-747                0.30    627.14     55.94      0.00
  J-748                0.25    626.75     65.54      0.00
  J-749                0.69    627.40     80.04      0.00
  J-75                 0.62    627.82     46.16      0.00
  J-750                0.04    626.83     66.28      0.00
  J-751                0.14    627.00     65.70      0.00
  J-752                0.92    627.83     46.63      0.00
  J-753                0.09    626.75     61.04      0.00
  J-754                0.00    627.44     69.14      0.00
  J-755                0.56    628.08     63.96      0.00
  J-756                1.80    627.80     66.27      0.00
  J-757                0.66    626.83     50.99      0.00
  J-758                0.44    627.09     64.17      0.00
  J-759                0.06    624.86     74.24      0.00
  J-76                 0.65    627.82     46.25      0.00
  J-760                0.25    627.48     81.19      0.00
  J-761                0.00    627.49     62.70      0.00
  J-762                0.22    627.49     77.63      0.00
  J-763                0.14    627.41     80.49      0.00
  J-764                0.11    627.57     50.43      0.00
  J-765                0.15    627.98     45.67      0.00
  J-766                0.05    626.79     76.65      0.00
  J-767                0.22    627.14     54.15      0.00
  J-768                0.00    627.49     65.29      0.00
  J-769                0.00    627.50     69.92      0.00
  J-77                 0.60    627.81     46.46      0.00
  J-770                0.12    627.97     45.43      0.00
  J-771                0.05    627.02     54.76      0.00
  J-772                0.09    626.76     61.50      0.00
  J-773                0.69    627.80     51.74      0.00
  J-774                0.00    627.56     71.75      0.00
  J-775                0.00    627.43     72.97      0.00
  J-776                0.00    627.36     66.90      0.00
  J-777                0.00    627.43     67.63      0.00
  J-778                0.00    627.35     66.81      0.00
  J-779                0.00    627.33     68.56      0.00
  J-78                 0.30    627.77     49.49      0.00
  J-780                0.00    627.32     66.68      0.00
  J-781                0.00    627.44     73.09      0.00
  J-782                0.00    627.43     73.01      0.00
  J-783                0.00    627.55     78.72      0.00
  J-784                0.00    627.53     81.10      0.00
  J-785                0.00    627.38     77.69      0.00
  J-786                0.00    627.44     73.16      0.00
  J-787                0.00    627.58     74.72      0.00
  J-788                0.00    627.67     74.42      0.00
  J-789                0.00    627.57     77.05      0.00
  J-79                 0.56    627.76     49.59      0.00
  J-790                0.00    627.55     78.98      0.00
  J-791                0.00    627.55     79.08      0.00
  J-792                0.00    627.55     78.25      0.00
  J-793                0.00    627.55     73.71      0.00
  J-794                0.00    627.65     74.77      0.00
  J-795                0.00    627.66     74.58      0.00
  J-796                0.00    628.01     70.09      0.00
  J-797                0.00    628.22     67.24      0.00
  J-798                0.00    628.23     66.20      0.00
  J-799                0.00    627.09     61.96      0.00
  J-8                  0.46    627.59     78.23      0.00
  J-80                 0.43    627.33     61.41      0.00
  J-800                0.08    627.04     74.71      0.00
  J-801                0.00    626.98     64.44      0.00
  J-802                0.00    627.00     58.66      0.00
  J-803                0.00    627.08     62.44      0.00
  J-804                0.29    627.83     48.58      0.00
  J-805                0.00    627.49     73.83    939.93
  J-806                0.00    627.83     50.77      0.00
  J-807                0.00    628.10     67.26      0.00
  J-808                0.00    628.09     66.38      0.00
  J-809                0.00    627.47     58.79      0.00
  J-81                 0.21    626.51     59.46      0.00
  J-82                 0.36    626.51     63.61      0.00
  J-83                 0.23    626.79     70.74      0.00
  J-84                 0.04    626.79     72.49      0.00
  J-85                 0.16    627.81     72.18      0.00
  J-86                 0.20    627.80     70.06      0.00
  J-87                 0.21    626.94     54.99      0.00
  J-88                 0.10    625.98     67.52      0.00
  J-89                 0.85    627.42     45.70      0.00
  J-9                  0.65    627.75     69.10      0.00
  J-90                 0.80    627.42     50.98      0.00
  J-91                 0.80    627.24     50.63      0.00
  J-92                 0.29    627.23     52.82      0.00
  J-93                 0.13    628.48     60.20      0.00
  J-94                 0.13    628.54     60.18      0.00
  J-95                 0.62    627.65     72.98      0.00
  J-96                 0.28    627.65     73.97      0.00
  J-97                 0.18    628.16     54.23      0.00
  J-98                 0.15    628.17     54.23      0.00
  J-99                 0.56    628.33     66.67      0.00
  O-Pump-1             0.00    628.29     64.40      0.00
  I-Pump-1             0.00    476.20     -1.50      0.00
  R-1                  0.00    476.20     -0.00      0.00  Reservoir
  T-1                424.25    624.58     59.68      0.00  Tank
  T-2               -970.65    629.78     55.81      0.00  Tank
  T-3                243.13    622.64     57.26      0.00  Tank
   
  Analysis ended Tue Mar 19 14:22:37 2019
