  Page 1                                    Wed Mar 20 09:05:29 2019

  ******************************************************************
  *                           E P A N E T                          *
  *                   Hydraulic and Water Quality                  *
  *                   Analysis for Pipe Networks                   *
  *                         Version 2.00.12                        *
  ******************************************************************
  
  Analysis begun Wed Mar 20 09:05:29 2019

   
  Node Results at 0:00:01 hrs:
  --------------------------------------------------------
                     Demand      Head  Pressure  化学成分
  Node                  gpm        ft       psi      mg/L
  --------------------------------------------------------
  1                 -666.62    310.06    112.68      0.00
  2                   10.08    305.40     89.00      0.00
  3                   17.64    304.77    106.06      0.00
  4                   10.08    304.35    105.88      0.00
  5                   10.08    304.31     88.53      0.00
  6                    6.30    302.28     76.82      0.00
  7                    5.04    297.79     59.71      0.00
  8                   11.34    297.79     81.37      0.00
  9                   17.64    297.17     50.77      0.00
  10                   6.30    297.79     72.70      0.00
  11                  43.82    296.15     48.16     92.35
  12                  20.16    293.75     36.29      0.00
  13                   2.52    293.04     35.98      0.00
  14                   2.52    292.71     40.17      0.00
  15                   2.52    292.53     44.43      0.00
  16                  25.20    292.55     61.77      0.00
  17                  25.20    292.51     48.75      0.00
  18                  25.20    292.51     83.41      0.00
  19                   6.30    292.51     61.75      0.00
  20                  23.94    292.69     53.16      0.00
  21                  20.16    292.66     61.82      0.00
  22                  12.60    292.66     40.15      0.00
  23                  10.08    292.09     26.90      0.00
  24                  13.86    292.39     44.37      0.00
  25                   7.56    291.94     26.84      0.00
  27                  10.08    291.93     70.16      0.00
  28                   0.00    291.92     78.83      0.00
  29                   8.82    291.92     78.83      0.00
  30                   3.78    291.92     70.16      0.00
  31                  21.42    291.94     44.17      0.00
  32                  21.42    292.51     79.08      0.00
  33                   1.89    292.66     48.82      0.00
  34                   1.89    292.66     44.48      0.00
  35                   0.00    291.92     78.83      0.00
  36                   1.26    291.92     78.83      0.00
  26                 259.92    291.88     24.64      0.00  Tank
   
   
  Node Results at 0:10:01 hrs:
  --------------------------------------------------------
                     Demand      Head  Pressure  化学成分
  Node                  gpm        ft       psi      mg/L
  --------------------------------------------------------
  1                 -666.62    310.24    112.76      0.00
  2                   10.08    305.57     89.07      0.00
  3                   17.64    304.94    106.13      0.00
  4                   10.08    304.53    105.95      0.00
  5                   10.08    304.49     88.60      0.00
  6                    6.30    302.46     76.89      0.00
  7                    5.04    297.97     59.78      0.00
  8                   11.34    297.97     81.45      0.00
  9                   17.64    297.35     50.85      0.00
  10                   6.30    297.97     72.78      0.00
  11                  43.82    296.32     48.24     92.35
  12                  20.16    293.92     36.36      0.00
  13                   2.52    293.22     36.06      0.00
  14                   2.52    292.89     40.25      0.00
  15                   2.52    292.71     44.50      0.00
  16                  25.20    292.73     61.84      0.00
  17                  25.20    292.69     48.83      0.00
  18                  25.20    292.68     83.49      0.00
  19                   6.30    292.69     61.83      0.00
  20                  23.94    292.86     53.24      0.00
  21                  20.16    292.84     61.89      0.00
  22                  12.60    292.84     40.23      0.00
  23                  10.08    292.27     26.98      0.00
  24                  13.86    292.57     44.44      0.00
  25                   7.56    292.12     26.92      0.00
  27                  10.08    292.10     70.24      0.00
  28                   0.00    292.10     78.90      0.00
  29                   8.82    292.10     78.90      0.00
  30                   3.78    292.10     70.24      0.00
  31                  21.42    292.11     44.25      0.00
  32                  21.42    292.68     79.16      0.00
  33                   1.89    292.84     48.89      0.00
  34                   1.89    292.84     44.56      0.00
  35                   0.00    292.10     78.90      0.00
  36                   1.26    292.10     78.90      0.00
  26                 259.92    292.05     24.72      0.00  Tank
   
   
  Node Results at 0:20:01 hrs:
  --------------------------------------------------------
                     Demand      Head  Pressure  化学成分
  Node                  gpm        ft       psi      mg/L
  --------------------------------------------------------
  1                 -666.62    310.42    112.84      0.00
  2                   10.08    305.75     89.15      0.00
  3                   17.64    305.12    106.21      0.00
  4                   10.08    304.70    106.03      0.00
  5                   10.08    304.67     88.68      0.00
  6                    6.30    302.63     76.97      0.00
  7                    5.04    298.15     59.86      0.00
  8                   11.34    298.15     81.52      0.00
  9                   17.64    297.53     50.92      0.00
  10                   6.30    298.14     72.86      0.00
  11                  43.82    296.50     48.31     92.35
  12                  20.16    294.10     36.44     81.91
  13                   2.52    293.39     36.13      0.00
  14                   2.52    293.07     40.33      0.00
  15                   2.52    292.88     44.58      0.00
  16                  25.20    292.91     61.92      0.00
  17                  25.20    292.86     48.90      0.00
  18                  25.20    292.86     83.57      0.00
  19                   6.30    292.87     61.90      0.00
  20                  23.94    293.04     53.31      0.00
  21                  20.16    293.02     61.97      0.00
  22                  12.60    293.02     40.30      0.00
  23                  10.08    292.44     27.06      0.00
  24                  13.86    292.75     44.52      0.00
  25                   7.56    292.30     26.99      0.00
  27                  10.08    292.28     70.32      0.00
  28                   0.00    292.27     78.98      0.00
  29                   8.82    292.27     78.98      0.00
  30                   3.78    292.27     70.31      0.00
  31                  21.42    292.29     44.32      0.00
  32                  21.42    292.86     79.23      0.00
  33                   1.89    293.02     48.97      0.00
  34                   1.89    293.02     44.64      0.00
  35                   0.00    292.27     78.98      0.00
  36                   1.26    292.27     78.98      0.00
  26                 259.92    292.23     24.80      0.00  Tank
   
   
  Node Results at 0:30:01 hrs:
  --------------------------------------------------------
                     Demand      Head  Pressure  化学成分
  Node                  gpm        ft       psi      mg/L
  --------------------------------------------------------
  1                 -666.62    310.59    112.91      0.00
  2                   10.08    305.93     89.23      0.00
  3                   17.64    305.30    106.29      0.00
  4                   10.08    304.88    106.11      0.00
  5                   10.08    304.84     88.76      0.00
  6                    6.30    302.81     77.05      0.00
  7                    5.04    298.32     59.94      0.00
  8                   11.34    298.32     81.60      0.00
  9                   17.64    297.70     51.00      0.00
  10                   6.30    298.32     72.93      0.00
  11                  43.82    296.68     48.39     92.35
  12                  20.16    294.28     36.52     92.35
  13                   2.52    293.57     36.21     81.91
  14                   2.52    293.24     40.40      0.00
  15                   2.52    293.06     44.66      0.00
  16                  25.20    293.08     62.00      0.00
  17                  25.20    293.04     48.98      0.00
  18                  25.20    293.04     83.64      0.00
  19                   6.30    293.04     61.98      0.00
  20                  23.94    293.22     53.39      0.00
  21                  20.16    293.19     62.05      0.00
  22                  12.60    293.20     40.38      0.00
  23                  10.08    292.62     27.13      0.00
  24                  13.86    292.92     44.60      0.00
  25                   7.56    292.48     27.07      0.00
  27                  10.08    292.46     70.39      0.00
  28                   0.00    292.45     79.06      0.00
  29                   8.82    292.45     79.06      0.00
  30                   3.78    292.45     70.39      0.00
  31                  21.42    292.47     44.40      0.00
  32                  21.42    293.04     79.31      0.00
  33                   1.89    293.19     49.05      0.00
  34                   1.89    293.19     44.71      0.00
  35                   0.00    292.45     79.06      0.00
  36                   1.26    292.45     79.06      0.00
  26                 259.92    292.41     24.87      0.00  Tank
   
   
  Node Results at 0:40:01 hrs:
  --------------------------------------------------------
                     Demand      Head  Pressure  化学成分
  Node                  gpm        ft       psi      mg/L
  --------------------------------------------------------
  1                 -666.62    310.77    112.99      0.00
  2                   10.08    306.10     89.30      0.00
  3                   17.64    305.48    106.36      0.00
  4                   10.08    305.06    106.18      0.00
  5                   10.08    305.02     88.84      0.00
  6                    6.30    302.99     77.12      0.00
  7                    5.04    298.50     60.01      0.00
  8                   11.34    298.50     81.68      0.00
  9                   17.64    297.88     51.08      0.00
  10                   6.30    298.50     73.01      0.00
  11                  43.82    296.86     48.47     92.35
  12                  20.16    294.45     36.59     92.35
  13                   2.52    293.75     36.29     92.35
  14                   2.52    293.42     40.48     81.91
  15                   2.52    293.24     44.73      0.00
  16                  25.20    293.26     62.07      0.00
  17                  25.20    293.22     49.06      0.00
  18                  25.20    293.21     83.72      0.00
  19                   6.30    293.22     62.06      0.00
  20                  23.94    293.40     53.47      0.00
  21                  20.16    293.37     62.12      0.00
  22                  12.60    293.37     40.46      0.00
  23                  10.08    292.80     27.21      0.00
  24                  13.86    293.10     44.67      0.00
  25                   7.56    292.65     27.15      0.00
  27                  10.08    292.63     70.47      0.00
  28                   0.00    292.63     79.13      0.00
  29                   8.82    292.63     79.13      0.00
  30                   3.78    292.63     70.47      0.00
  31                  21.42    292.64     44.48      0.00
  32                  21.42    293.21     79.39      0.00
  33                   1.89    293.37     49.12      0.00
  34                   1.89    293.37     44.79      0.00
  35                   0.00    292.63     79.13      0.00
  36                   1.26    292.63     79.13      0.00
  26                 259.92    292.58     24.95      0.00  Tank
   
   
  Node Results at 0:50:01 hrs:
  --------------------------------------------------------
                     Demand      Head  Pressure  化学成分
  Node                  gpm        ft       psi      mg/L
  --------------------------------------------------------
  1                 -666.62    311.83    113.45      0.00
  2                    8.32    307.16     89.76      0.00
  3                   14.56    306.54    106.83      0.00
  4                    8.32    306.11    106.64      0.00
  5                    8.32    306.07     89.29      0.00
  6                    5.20    303.98     77.55      0.00
  7                    4.16    299.37     60.39      0.00
  8                    9.36    299.37     82.05      0.00
  9                   14.56    298.72     51.44      0.00
  10                   5.20    299.36     73.39      0.00
  11                  36.17    297.64     48.81     92.35
  12                  16.64    295.03     36.84     92.35
  13                   2.08    294.25     36.51     92.35
  14                   2.08    293.89     40.68     92.35
  15                   2.08    293.67     44.92     81.91
  16                  20.80    293.73     62.28      0.00
  17                  20.80    293.67     49.25      0.00
  18                  20.80    293.67     83.92      0.00
  19                   5.20    293.68     62.26      0.00
  20                  19.76    293.87     53.67      0.00
  21                  16.64    293.85     62.33      0.00
  22                  10.40    293.85     40.67      0.00
  23                   8.32    293.07     27.33      0.00
  24                  11.44    293.49     44.84      0.00
  25                   6.24    292.87     27.24      0.00
  27                   8.32    292.85     70.56      0.00
  28                   0.00    292.85     79.23      0.00
  29                   7.28    292.85     79.23      0.00
  30                   3.12    292.85     70.56      0.00
  31                  17.68    292.86     44.57      0.00
  32                  17.68    293.67     79.58      0.00
  33                   1.56    293.85     49.33      0.00
  34                   1.56    293.85     45.00      0.00
  35                   0.00    292.85     79.23      0.00
  36                   1.04    292.85     79.23      0.00
  26                 330.93    292.76     25.03      0.00  Tank
   
   
  Node Results at 1:00:01 hrs:
  --------------------------------------------------------
                     Demand      Head  Pressure  化学成分
  Node                  gpm        ft       psi      mg/L
  --------------------------------------------------------
  1                 -666.62    312.05    113.55      0.00
  2                    8.32    307.38     89.86      0.00
  3                   14.56    306.77    106.92      0.00
  4                    8.32    306.33    106.74      0.00
  5                    8.32    306.29     89.39      0.00
  6                    5.20    304.21     77.65      0.00
  7                    4.16    299.59     60.49      0.00
  8                    9.36    299.59     82.15      0.00
  9                   14.56    298.95     51.54      0.00
  10                   5.20    299.59     73.48      0.00
  11                  36.17    297.86     48.90     89.76
  12                  16.64    295.26     36.94     92.35
  13                   2.08    294.48     36.60     92.35
  14                   2.08    294.11     40.78     92.35
  15                   2.08    293.90     45.02     92.20
  16                  20.80    293.95     62.38      0.00
  17                  20.80    293.90     49.35      0.00
  18                  20.80    293.90     84.02      0.00
  19                   5.20    293.91     62.36      0.00
  20                  19.76    294.10     53.77      0.00
  21                  16.64    294.08     62.43      0.00
  22                  10.40    294.08     40.76      0.00
  23                   8.32    293.29     27.43      0.00
  24                  11.44    293.71     44.94     81.91
  25                   6.24    293.09     27.34      0.00
  27                   8.32    293.08     70.66      0.00
  28                   0.00    293.08     79.33      0.00
  29                   7.28    293.08     79.33      0.00
  30                   3.12    293.08     70.66      0.00
  31                  17.68    293.09     44.67      0.00
  32                  17.68    293.90     79.68      0.00
  33                   1.56    294.08     49.43      0.00
  34                   1.56    294.08     45.10      0.00
  35                   0.00    293.08     79.33      0.00
  36                   1.04    293.08     79.33      0.00
  26                 330.93    292.99     25.13      0.00  Tank
   
   
  Node Results at 1:10:01 hrs:
  --------------------------------------------------------
                     Demand      Head  Pressure  化学成分
  Node                  gpm        ft       psi      mg/L
  --------------------------------------------------------
  1                 -666.62    312.28    113.64      0.00
  2                    8.32    307.61     89.96      0.00
  3                   14.56    306.99    107.02      0.00
  4                    8.32    306.56    106.83      0.00
  5                    8.32    306.52     89.48      0.00
  6                    5.20    304.43     77.75      0.00
  7                    4.16    299.82     60.58      0.00
  8                    9.36    299.82     82.25      0.00
  9                   14.56    299.17     51.64      0.00
  10                   5.20    299.82     73.58      0.00
  11                  36.17    298.09     49.00     89.76
  12                  16.64    295.48     37.04     92.35
  13                   2.08    294.70     36.70     92.35
  14                   2.08    294.34     40.88     92.35
  15                   2.08    294.12     45.12     92.20
  16                  20.80    294.18     62.47     46.83
  17                  20.80    294.12     49.45      0.00
  18                  20.80    294.12     84.11      0.00
  19                   5.20    294.13     62.45      0.00
  20                  19.76    294.32     53.87      0.00
  21                  16.64    294.30     62.53      0.00
  22                  10.40    294.30     40.86      0.00
  23                   8.32    293.52     27.52     81.91
  24                  11.44    293.94     45.04     92.20
  25                   6.24    293.32     27.44      0.00
  27                   8.32    293.30     70.76      0.00
  28                   0.00    293.30     79.42      0.00
  29                   7.28    293.30     79.42      0.00
  30                   3.12    293.30     70.76      0.00
  31                  17.68    293.31     44.77      0.00
  32                  17.68    294.12     79.78      0.00
  33                   1.56    294.30     49.53      0.00
  34                   1.56    294.30     45.19      0.00
  35                   0.00    293.30     79.42      0.00
  36                   1.04    293.30     79.42      0.00
  26                 330.93    293.21     25.22      0.00  Tank
   
   
  Node Results at 1:20:01 hrs:
  --------------------------------------------------------
                     Demand      Head  Pressure  化学成分
  Node                  gpm        ft       psi      mg/L
  --------------------------------------------------------
  1                 -666.62    312.50    113.74      0.00
  2                    8.32    307.84     90.06      0.00
  3                   14.56    307.22    107.12      0.00
  4                    8.32    306.78    106.93      0.00
  5                    8.32    306.74     89.58      0.00
  6                    5.20    304.66     77.85      0.00
  7                    4.16    300.04     60.68      0.00
  8                    9.36    300.04     82.34      0.00
  9                   14.56    299.40     51.73      0.00
  10                   5.20    300.04     73.68      0.00
  11                  36.17    298.32     49.10     89.76
  12                  16.64    295.71     37.14     89.81
  13                   2.08    294.93     36.80     92.35
  14                   2.08    294.56     40.97     92.35
  15                   2.08    294.35     45.21     92.11
  16                  20.80    294.40     62.57     88.27
  17                  20.80    294.35     49.55      0.00
  18                  20.80    294.35     84.21      0.00
  19                   5.20    294.36     62.55      0.00
  20                  19.76    294.55     53.97      0.00
  21                  16.64    294.53     62.62      0.00
  22                  10.40    294.53     40.96      0.00
  23                   8.32    293.74     27.62     92.20
  24                  11.44    294.16     45.13     92.20
  25                   6.24    293.54     27.53     81.91
  27                   8.32    293.53     70.86      0.00
  28                   0.00    293.53     79.52      0.00
  29                   7.28    293.53     79.52      0.00
  30                   3.12    293.53     70.86      0.00
  31                  17.68    293.54     44.86      0.00
  32                  17.68    294.35     79.88      0.00
  33                   1.56    294.53     49.63      0.00
  34                   1.56    294.53     45.29      0.00
  35                   0.00    293.53     79.52      0.00
  36                   1.04    293.53     79.52      0.00
  26                 330.93    293.44     25.32      0.00  Tank
   
   
  Node Results at 1:30:01 hrs:
  --------------------------------------------------------
                     Demand      Head  Pressure  化学成分
  Node                  gpm        ft       psi      mg/L
  --------------------------------------------------------
  1                 -666.62    312.73    113.84      0.00
  2                    8.32    308.06     90.15      0.00
  3                   14.56    307.44    107.22      0.00
  4                    8.32    307.01    107.03      0.00
  5                    8.32    306.97     89.68      0.00
  6                    5.20    304.88     77.94      0.00
  7                    4.16    300.27     60.78      0.00
  8                    9.36    300.27     82.44      0.00
  9                   14.56    299.62     51.83      0.00
  10                   5.20    300.27     73.78      0.00
  11                  36.17    298.54     49.20     89.76
  12                  16.64    295.93     37.23     89.76
  13                   2.08    295.15     36.90     89.81
  14                   2.08    294.79     41.07     92.35
  15                   2.08    294.57     45.31     91.07
  16                  20.80    294.63     62.67     92.35
  17                  20.80    294.57     49.65      0.00
  18                  20.80    294.57     84.31      0.00
  19                   5.20    294.58     62.65      0.00
  20                  19.76    294.77     54.06      0.00
  21                  16.64    294.75     62.72      0.00
  22                  10.40    294.75     41.06      0.00
  23                   8.32    293.97     27.72     92.20
  24                  11.44    294.39     45.23     92.11
  25                   6.24    293.77     27.63     92.20
  27                   8.32    293.76     70.96      0.00
  28                   0.00    293.75     79.62      0.00
  29                   7.28    293.75     79.62      0.00
  30                   3.12    293.75     70.95      0.00
  31                  17.68    293.76     44.96      0.00
  32                  17.68    294.57     79.98      0.00
  33                   1.56    294.75     49.72      0.00
  34                   1.56    294.75     45.39      0.00
  35                   0.00    293.75     79.62      0.00
  36                   1.04    293.75     79.62      0.00
  26                 330.93    293.66     25.42      0.31  Tank
   
   
  Node Results at 1:40:01 hrs:
  --------------------------------------------------------
                     Demand      Head  Pressure  化学成分
  Node                  gpm        ft       psi      mg/L
  --------------------------------------------------------
  1                 -666.62    312.95    113.94      0.00
  2                    8.32    308.29     90.25      0.00
  3                   14.56    307.67    107.32      0.00
  4                    8.32    307.23    107.13      0.00
  5                    8.32    307.19     89.78      0.00
  6                    5.20    305.11     78.04      0.00
  7                    4.16    300.49     60.88      0.00
  8                    9.36    300.49     82.54      0.00
  9                   14.56    299.85     51.93      0.00
  10                   5.20    300.49     73.87      0.00
  11                  36.17    298.77     49.29     89.76
  12                  16.64    296.16     37.33     89.76
  13                   2.08    295.38     36.99     89.76
  14                   2.08    295.01     41.17     89.81
  15                   2.08    294.80     45.41     91.07
  16                  20.80    294.86     62.77     92.35
  17                  20.80    294.80     49.74     22.23
  18                  20.80    294.80     84.41      0.00
  19                   5.20    294.81     62.75      0.00
  20                  19.76    295.00     54.16      0.00
  21                  16.64    294.98     62.82      0.00
  22                  10.40    294.98     41.15      0.00
  23                   8.32    294.20     27.82     92.11
  24                  11.44    294.61     45.33     91.07
  25                   6.24    293.99     27.73     92.20
  27                   8.32    293.98     71.05      0.00
  28                   0.00    293.98     79.72      0.00
  29                   7.28    293.98     79.72      0.00
  30                   3.12    293.98     71.05      0.00
  31                  17.68    293.99     45.06      0.00
  32                  17.68    294.80     80.07      0.00
  33                   1.56    294.98     49.82      0.00
  34                   1.56    294.98     45.49      0.00
  35                   0.00    293.98     79.72      0.00
  36                   1.04    293.98     79.72      0.00
  26                 330.93    293.89     25.52      0.67  Tank
   
   
  Node Results at 1:50:01 hrs:
  --------------------------------------------------------
                     Demand      Head  Pressure  化学成分
  Node                  gpm        ft       psi      mg/L
  --------------------------------------------------------
  1                 -666.62    313.47    114.16      0.00
  2                    7.76    308.80     90.47      0.00
  3                   13.58    308.19    107.54      0.00
  4                    7.76    307.75    107.35      0.00
  5                    7.76    307.71     90.00      0.00
  6                    4.85    305.61     78.26      0.00
  7                    3.88    300.95     61.07      0.00
  8                    8.73    300.95     82.74      0.00
  9                   13.58    300.29     52.12      0.00
  10                   4.85    300.95     74.07      0.00
  11                  33.74    299.20     49.48     89.76
  12                  15.52    296.52     37.49     89.76
  13                   1.94    295.72     37.14     89.76
  14                   1.94    295.34     41.31     89.76
  15                   1.94    295.11     45.54     88.57
  16                  19.40    295.18     62.91     92.35
  17                  19.40    295.12     49.88     66.50
  18                  19.40    295.12     84.55      0.00
  19                   4.85    295.14     62.89      0.00
  20                  18.43    295.33     54.30      0.00
  21                  15.52    295.31     62.96      0.00
  22                   9.70    295.31     41.30      0.00
  23                   7.76    294.45     27.93     91.07
  24                  10.67    294.91     45.46     91.07
  25                   5.82    294.23     27.83     92.11
  27                   7.76    294.22     71.16      0.00
  28                   0.00    294.22     79.82      0.00
  29                   6.79    294.22     79.82      0.00
  30                   2.91    294.22     71.16      0.00
  31                  16.49    294.23     45.16      0.00
  32                  16.49    295.12     80.21      0.00
  33                   1.45    295.31     49.96      0.00
  34                   1.45    295.31     45.63      0.00
  35                   0.00    294.22     79.82      0.00
  36                   0.97    294.22     79.82      0.00
  26                 353.53    294.11     25.61      1.02  Tank
   
   
  Node Results at 2:00:01 hrs:
  --------------------------------------------------------
                     Demand      Head  Pressure  化学成分
  Node                  gpm        ft       psi      mg/L
  --------------------------------------------------------
  1                 -666.62    313.71    114.27      0.00
  2                    7.76    309.04     90.58      0.00
  3                   13.58    308.43    107.65      0.00
  4                    7.76    307.99    107.45      0.00
  5                    7.76    307.95     90.10      0.00
  6                    4.85    305.85     78.36      0.00
  7                    3.88    301.19     61.18      0.00
  8                    8.73    301.19     82.84      0.00
  9                   13.58    300.54     52.23      0.00
  10                   4.85    301.19     74.18      0.00
  11                  33.74    299.44     49.59     88.97
  12                  15.52    296.76     37.59     89.76
  13                   1.94    295.96     37.25     89.76
  14                   1.94    295.58     41.42     89.76
  15                   1.94    295.35     45.65     87.12
  16                  19.40    295.42     63.01     92.35
  17                  19.40    295.36     49.99     90.28
  18                  19.40    295.36     84.65      0.00
  19                   4.85    295.38     62.99      0.00
  20                  18.43    295.57     54.41      0.00
  21                  15.52    295.55     63.07      0.00
  22                   9.70    295.55     41.40      0.00
  23                   7.76    294.69     28.03     91.07
  24                  10.67    295.15     45.56     88.57
  25                   5.82    294.47     27.94     91.07
  27                   7.76    294.46     71.26      0.00
  28                   0.00    294.46     79.93      0.00
  29                   6.79    294.46     79.93      0.00
  30                   2.91    294.46     71.26      0.00
  31                  16.49    294.47     45.27      0.00
  32                  16.49    295.36     80.32      0.00
  33                   1.45    295.55     50.07      0.00
  34                   1.45    295.55     45.74      0.00
  35                   0.00    294.46     79.93      0.00
  36                   0.97    294.46     79.93      0.00
  26                 353.53    294.35     25.72      1.38  Tank
   
   
  Node Results at 2:10:01 hrs:
  --------------------------------------------------------
                     Demand      Head  Pressure  化学成分
  Node                  gpm        ft       psi      mg/L
  --------------------------------------------------------
  1                 -666.62    313.95    114.37      0.00
  2                    7.76    309.29     90.68      0.00
  3                   13.58    308.67    107.75      0.00
  4                    7.76    308.23    107.56      0.00
  5                    7.76    308.19     90.21      0.00
  6                    4.85    306.09     78.47      0.00
  7                    3.88    301.43     61.28      0.00
  8                    8.73    301.43     82.95      0.00
  9                   13.58    300.78     52.33      0.00
  10                   4.85    301.43     74.28      0.00
  11                  33.74    299.68     49.69     88.97
  12                  15.52    297.00     37.70     89.75
  13                   1.94    296.20     37.35     89.76
  14                   1.94    295.82     41.52     89.76
  15                   1.94    295.59     45.75     87.12
  16                  19.40    295.67     63.12     90.58
  17                  19.40    295.61     50.09     92.35
  18                  19.40    295.60     84.76      0.00
  19                   4.85    295.62     63.10      0.00
  20                  18.43    295.81     54.51      0.00
  21                  15.52    295.79     63.17      0.00
  22                   9.70    295.79     41.51      0.00
  23                   7.76    294.94     28.14     88.57
  24                  10.67    295.39     45.67     87.12
  25                   5.82    294.72     28.04     91.07
  27                   7.76    294.70     71.37      0.00
  28                   0.00    294.70     80.03      0.00
  29                   6.79    294.70     80.03      0.00
  30                   2.91    294.70     71.36      0.00
  31                  16.49    294.71     45.37      0.00
  32                  16.49    295.60     80.42      0.00
  33                   1.45    295.79     50.17      0.00
  34                   1.45    295.79     45.84      0.00
  35                   0.00    294.70     80.03      0.00
  36                   0.97    294.70     80.03      0.00
  26                 353.53    294.60     25.82      1.75  Tank
   
   
  Node Results at 2:20:01 hrs:
  --------------------------------------------------------
                     Demand      Head  Pressure  化学成分
  Node                  gpm        ft       psi      mg/L
  --------------------------------------------------------
  1                 -666.62    314.19    114.47      0.00
  2                    7.76    309.53     90.79      0.00
  3                   13.58    308.91    107.85      0.00
  4                    7.76    308.47    107.66      0.00
  5                    7.76    308.43     90.31      0.00
  6                    4.85    306.33     78.57      0.00
  7                    3.88    301.67     61.39      0.00
  8                    8.73    301.67     83.05      0.00
  9                   13.58    301.02     52.44      0.00
  10                   4.85    301.67     74.38      0.00
  11                  33.74    299.92     49.79     88.97
  12                  15.52    297.24     37.80     88.97
  13                   1.94    296.44     37.45     89.75
  14                   1.94    296.06     41.62     89.76
  15                   1.94    295.83     45.86     87.12
  16                  19.40    295.91     63.22     89.77
  17                  19.40    295.85     50.20     92.35
  18                  19.40    295.85     84.86      0.00
  19                   4.85    295.86     63.20      0.00
  20                  18.43    296.05     54.62      0.00
  21                  15.52    296.03     63.28      0.00
  22                   9.70    296.03     41.61      0.00
  23                   7.76    295.18     28.24     87.12
  24                  10.67    295.63     45.77     87.12
  25                   5.82    294.96     28.15     88.57
  27                   7.76    294.94     71.47      0.00
  28                   0.00    294.94     80.13      0.00
  29                   6.79    294.94     80.13      0.00
  30                   2.91    294.94     71.47      0.00
  31                  16.49    294.95     45.48      0.00
  32                  16.49    295.85     80.53      0.00
  33                   1.45    296.03     50.28      0.00
  34                   1.45    296.03     45.94      0.00
  35                   0.00    294.94     80.13      0.00
  36                   0.97    294.94     80.13      0.00
  26                 353.53    294.84     25.93      2.11  Tank
   
   
  Node Results at 2:30:01 hrs:
  --------------------------------------------------------
                     Demand      Head  Pressure  化学成分
  Node                  gpm        ft       psi      mg/L
  --------------------------------------------------------
  1                 -666.62    314.43    114.58      0.00
  2                    7.76    309.77     90.89      0.00
  3                   13.58    309.15    107.96      0.00
  4                    7.76    308.71    107.77      0.00
  5                    7.76    308.67     90.42      0.00
  6                    4.85    306.57     78.67      0.00
  7                    3.88    301.91     61.49      0.00
  8                    8.73    301.91     83.16      0.00
  9                   13.58    301.26     52.54      0.00
  10                   4.85    301.91     74.49      0.00
  11                  33.74    300.16     49.90     88.97
  12                  15.52    297.48     37.91     88.97
  13                   1.94    296.68     37.56     88.97
  14                   1.94    296.30     41.73     89.75
  15                   1.94    296.07     45.96     87.12
  16                  19.40    296.15     63.33     89.76
  17                  19.40    296.09     50.30     92.35
  18                  19.40    296.09     84.96      0.00
  19                   4.85    296.10     63.30      0.00
  20                  18.43    296.29     54.72      0.00
  21                  15.52    296.27     63.38      0.00
  22                   9.70    296.27     41.72      0.00
  23                   7.76    295.42     28.35     87.12
  24                  10.67    295.87     45.88     87.12
  25                   5.82    295.20     28.25     87.12
  27                   7.76    295.18     71.57      0.00
  28                   0.00    295.18     80.24      0.00
  29                   6.79    295.18     80.24      0.00
  30                   2.91    295.18     71.57      0.00
  31                  16.49    295.19     45.58      0.00
  32                  16.49    296.09     80.63      0.00
  33                   1.45    296.27     50.38      0.00
  34                   1.45    296.27     46.05      0.00
  35                   0.00    295.18     80.24      0.00
  36                   0.97    295.18     80.24      0.00
  26                 353.53    295.08     26.03      2.45  Tank
   
   
  Node Results at 2:40:01 hrs:
  --------------------------------------------------------
                     Demand      Head  Pressure  化学成分
  Node                  gpm        ft       psi      mg/L
  --------------------------------------------------------
  1                 -666.62    314.67    114.68      0.00
  2                    7.76    310.01     91.00      0.00
  3                   13.58    309.39    108.06      0.00
  4                    7.76    308.95    107.87      0.00
  5                    7.76    308.91     90.52      0.00
  6                    4.85    306.81     78.78      0.00
  7                    3.88    302.15     61.59      0.00
  8                    8.73    302.15     83.26      0.00
  9                   13.58    301.50     52.65      0.00
  10                   4.85    302.15     74.59      0.00
  11                  33.74    300.40     50.00     88.97
  12                  15.52    297.72     38.01     88.97
  13                   1.94    296.92     37.66     88.97
  14                   1.94    296.54     41.83     88.97
  15                   1.94    296.31     46.07     87.12
  16                  19.40    296.39     63.43     89.76
  17                  19.40    296.33     50.40     91.28
  18                  19.40    296.33     85.07      0.00
  19                   4.85    296.34     63.41      0.00
  20                  18.43    296.53     54.82     12.33
  21                  15.52    296.51     63.48      0.00
  22                   9.70    296.51     41.82      0.00
  23                   7.76    295.66     28.45     87.12
  24                  10.67    296.11     45.98     87.12
  25                   5.82    295.44     28.35     87.12
  27                   7.76    295.42     71.68      0.00
  28                   0.00    295.42     80.34      0.00
  29                   6.79    295.42     80.34      0.00
  30                   2.91    295.42     71.68      0.00
  31                  16.49    295.43     45.68      0.00
  32                  16.49    296.33     80.74      0.00
  33                   1.45    296.51     50.49      0.00
  34                   1.45    296.51     46.15      0.00
  35                   0.00    295.42     80.34      0.00
  36                   0.97    295.42     80.34      0.00
  26                 353.53    295.32     26.14      2.79  Tank
   
   
  Node Results at 2:50:01 hrs:
  --------------------------------------------------------
                     Demand      Head  Pressure  化学成分
  Node                  gpm        ft       psi      mg/L
  --------------------------------------------------------
  1                 -666.62    314.91    114.79      0.00
  2                    7.76    310.25     91.10      0.00
  3                   13.58    309.63    108.17      0.00
  4                    7.76    309.19    107.98      0.00
  5                    7.76    309.15     90.63      0.00
  6                    4.85    307.05     78.88      0.00
  7                    3.88    302.39     61.70      0.00
  8                    8.73    302.39     83.36      0.00
  9                   13.58    301.74     52.75      0.00
  10                   4.85    302.39     74.70      0.00
  11                  33.74    300.64     50.11     88.97
  12                  15.52    297.96     38.11     88.97
  13                   1.94    297.16     37.77     88.97
  14                   1.94    296.78     41.94     88.97
  15                   1.94    296.56     46.17     86.35
  16                  19.40    296.63     63.53     89.76
  17                  19.40    296.57     50.51     90.09
  18                  19.40    296.57     85.17      0.00
  19                   4.85    296.58     63.51      0.00
  20                  18.43    296.77     54.93     81.91
  21                  15.52    296.75     63.59      0.00
  22                   9.70    296.76     41.92      0.00
  23                   7.76    295.90     28.55     87.12
  24                  10.67    296.36     46.08     87.12
  25                   5.82    295.68     28.46     87.12
  27                   7.76    295.67     71.78      0.00
  28                   0.00    295.66     80.45      0.00
  29                   6.79    295.66     80.45      0.00
  30                   2.91    295.66     71.78      0.00
  31                  16.49    295.67     45.79     15.88
  32                  16.49    296.57     80.84      0.00
  33                   1.45    296.75     50.59      0.00
  34                   1.45    296.75     46.26      0.00
  35                   0.00    295.66     80.45      0.00
  36                   0.97    295.66     80.45      0.00
  26                 353.53    295.56     26.24      3.13  Tank
   
  Analysis ended Wed Mar 20 09:05:29 2019
